                                   MODFLOW 6
                U.S. GEOLOGICAL SURVEY MODULAR HYDROLOGIC MODEL
                          GROUNDWATER FLOW MODEL (GWF)
                            VERSION 6.6.1 02/10/2025

   MODFLOW 6 compiled Feb 14 2025 13:39:18 with Intel(R) Fortran Intel(R) 64
   Compiler Classic for applications running on Intel(R) 64, Version 2021.7.0
                             Build 20220726_000000

This software has been approved for release by the U.S. Geological 
Survey (USGS). Although the software has been subjected to rigorous 
review, the USGS reserves the right to update the software as needed 
pursuant to further analysis and review. No warranty, expressed or 
implied, is made by the USGS or the U.S. Government as to the 
functionality of the software and related material nor shall the 
fact of release constitute any such warranty. Furthermore, the 
software is released on condition that neither the USGS nor the U.S. 
Government shall be held liable for any damages resulting from its 
authorized or unauthorized use. Also refer to the USGS Water 
Resources Software User Rights Notice for complete use, copyright, 
and distribution information.


As a work of the United States Government, this USGS product is 
in the public domain within the United States. You can copy, 
modify, distribute, and perform the work, even for commercial 
purposes, all without asking permission. Additionally, USGS 
waives copyright and related rights in the work worldwide 
through CC0 1.0 Universal Public Domain Dedication 
(https://creativecommons.org/publicdomain/zero/1.0/).

The following GNU Lesser General Public License (LGPL) libraries
are used in this USGS product:

    SPARSKIT version 2.0
      ilut, luson, and qsplit 
      (https://www-users.cse.umn.edu/~saad/software/SPARSKIT/)

    RCM - Reverse Cuthill McKee Ordering
      (https://people.math.sc.edu/Burkardt/f_src/rcm/rcm.html)

    BLAS - Basic Linear Algebra Subprograms Level 1
      (https://people.math.sc.edu/Burkardt/f_src/blas1_d/blas1_d.html)

    SPARSEKIT - Sparse Matrix Utility Package
      amux, dperm, dvperm, rperm, and cperm
      (https://people.sc.fsu.edu/~jburkardt/f77_src/sparsekit/sparsekit.html)

The following BSD-3 License libraries are used in this USGS product:

    Modern Fortran DAG Library
      Copyright (c) 2018, Jacob Williams
      All rights reserved.
      (https://github.com/jacobwilliams/daglib)

MODFLOW 6 compiler options: -Ilinux/obj_mf6 -O2 -no-heap-arrays -fpe0
-traceback -Qdiag-disable:7416 -Qdiag-disable:7025 -Qdiag-disable:5268 -fpp
-module linux/mod_mf6/ -c -o linux/obj_mf6/compilerversion.o

System command used to initiate simulation:
/home/sensei/mfplayground/modflow-python/mf6.4.1_linux/bin/mf6

MODFLOW was compiled using uniform precision.

Real Variables
  KIND: 8
  TINY (smallest non-zero value):    2.225074-308
  HUGE (largest value):    1.797693+308
  PRECISION: 15
  SIZE IN BITS: 64

Integer Variables
  KIND: 4
  HUGE (largest value): 2147483647
  SIZE IN BITS: 32

Long Integer Variables
  KIND: 8
  HUGE (largest value): 9223372036854775807
  SIZE IN BITS: 64

Logical Variables
  KIND: 4
  SIZE IN BITS: 32
 
 NAMEFILE OPTIONS:
    FLOWS WILL BE SAVED TO BUDGET FILE SPECIFIED IN OUTPUT CONTROL
 END NAMEFILE OPTIONS:

 DIS -- STRUCTURED GRID DISCRETIZATION PACKAGE, VERSION 2 : 3/27/2014 - INPUT READ FROM MEMPATH: __INPUT__/GWF-ES7/DIS                             


 NPF -- NODE PROPERTY FLOW PACKAGE, VERSION 1, 3/30/2015 INPUT READ FROM MEMPATH: __INPUT__/GWF-ES7/NPF                             


 IC -- Initial Conditions Package, Version 8, 3/28/2015 input read from mempath: __INPUT__/GWF-ES7/IC                              


 Setting Discretization Options
    Model length unit [0=UND, 1=FEET, 2=METERS, 3=CENTIMETERS] set as 2
 End Setting Discretization Options

 Setting Discretization Dimensions
    NLAY = 3
    NROW = 50
    NCOL = 26
 End Setting Discretization Dimensions

 Setting Discretization Griddata
    DELR set from input file
    DELC set from input file
    TOP set from input file
    BOTM set from input file
    IDOMAIN set from input file
 End Setting Discretization Griddata

 Setting NPF Options
    Specific discharge will be calculated at cell centers and written to DATA-SPDIS in budget file when requested.
 End Setting NPF Options

 Setting NPF Griddata
    ICELLTYPE set from input file
    K set from input file
    K33 set from input file
    K22 not provided.  Setting K22 = K.
 End Setting NPF Griddata


 CHD   -- CHD PACKAGE, VERSION 8, 2/22/2014 INPUT READ FROM MEMPATH: __INPUT__/GWF-ES7/CHD-1                           

 PROCESSING CHD BASE OPTIONS
 END OF CHD BASE OPTIONS

 PROCESSING CHD BASE DIMENSIONS
    MAXBOUND =     135
 END OF CHD BASE DIMENSIONS
    STRT set from input file

 STO -- STORAGE PACKAGE, VERSION 1, 5/19/2014 INPUT READ FROM MEMPATH: __INPUT__/GWF-ES7/STO                             


 PROCESSING STORAGE OPTIONS
    STORAGECOEFFICIENT OPTION:
 Read storage coefficient rather than specific storage
 END OF STORAGE OPTIONS
    BINARY GRID INFORMATION WILL BE WRITTEN TO:
      UNIT NUMBER: 1012
      FILE NAME: gwf-es7.dis.grb

 OPENED gwf-es7.dis.grb
 FILE TYPE:DATA(BINARY)   UNIT 1012   STATUS:REPLACE             
 FORMAT:UNFORMATTED            ACCESS:STREAM              
 ACTION:READWRITE           

      THE LAST TIME STEP WILL BE PRINTED
      THE LAST TIME STEP WILL BE PRINTED
 # File generated by Flopy version 3.9.2 on 11/13/2025 at 22:54:35.

 PROCESSING OC OPTIONS

    BUDGET INFORMATION WILL BE WRITTEN TO:
      UNIT NUMBER: 1013
      FILE NAME: gwf-es7.bud

 OPENED gwf-es7.bud
 FILE TYPE:DATA(BINARY)   UNIT 1013   STATUS:REPLACE             
 FORMAT:UNFORMATTED            ACCESS:STREAM              
 ACTION:READWRITE           

    HEAD INFORMATION WILL BE WRITTEN TO:
      UNIT NUMBER: 1014
      FILE NAME: gwf-es7.hds

 OPENED gwf-es7.hds
 FILE TYPE:DATA(BINARY)   UNIT 1014   STATUS:REPLACE             
 FORMAT:UNFORMATTED            ACCESS:STREAM              
 ACTION:READWRITE           

 END OF OC OPTIONS

start timestep kper="1" kstp="1" mode="normal"


 BEGIN READING OUTPUT CONTROL FOR STRESS PERIOD 1
      THE LAST TIME STEP WILL BE SAVED
      THE LAST TIME STEP WILL BE SAVED
      THE LAST TIME STEP WILL BE PRINTED
      THE LAST TIME STEP WILL BE PRINTED

 END READING OUTPUT CONTROL FOR STRESS PERIOD 1

end timestep


start timestep kper="1" kstp="2" mode="normal"


end timestep


start timestep kper="1" kstp="3" mode="normal"


end timestep


start timestep kper="1" kstp="4" mode="normal"


end timestep


start timestep kper="1" kstp="5" mode="normal"


end timestep


start timestep kper="1" kstp="6" mode="normal"


end timestep


start timestep kper="1" kstp="7" mode="normal"


end timestep


start timestep kper="1" kstp="8" mode="normal"


end timestep


start timestep kper="1" kstp="9" mode="normal"


end timestep


start timestep kper="1" kstp="10" mode="normal"


end timestep


start timestep kper="1" kstp="11" mode="normal"


end timestep


start timestep kper="1" kstp="12" mode="normal"


end timestep


start timestep kper="1" kstp="13" mode="normal"


end timestep


start timestep kper="1" kstp="14" mode="normal"


end timestep


start timestep kper="1" kstp="15" mode="normal"


end timestep


start timestep kper="1" kstp="16" mode="normal"


end timestep


start timestep kper="1" kstp="17" mode="normal"


end timestep


start timestep kper="1" kstp="18" mode="normal"


end timestep


start timestep kper="1" kstp="19" mode="normal"


end timestep


start timestep kper="1" kstp="20" mode="normal"


end timestep


start timestep kper="1" kstp="21" mode="normal"


end timestep


start timestep kper="1" kstp="22" mode="normal"


end timestep


start timestep kper="1" kstp="23" mode="normal"


end timestep


start timestep kper="1" kstp="24" mode="normal"


end timestep


start timestep kper="1" kstp="25" mode="normal"


end timestep


start timestep kper="1" kstp="26" mode="normal"


end timestep


start timestep kper="1" kstp="27" mode="normal"


end timestep


start timestep kper="1" kstp="28" mode="normal"


end timestep


start timestep kper="1" kstp="29" mode="normal"


end timestep


start timestep kper="1" kstp="30" mode="normal"


end timestep


start timestep kper="1" kstp="31" mode="normal"


end timestep


start timestep kper="1" kstp="32" mode="normal"


end timestep


start timestep kper="1" kstp="33" mode="normal"


end timestep


start timestep kper="1" kstp="34" mode="normal"


end timestep


start timestep kper="1" kstp="35" mode="normal"


end timestep


start timestep kper="1" kstp="36" mode="normal"


end timestep


start timestep kper="1" kstp="37" mode="normal"


end timestep


start timestep kper="1" kstp="38" mode="normal"


end timestep


start timestep kper="1" kstp="39" mode="normal"


end timestep


start timestep kper="1" kstp="40" mode="normal"


end timestep


start timestep kper="1" kstp="41" mode="normal"


end timestep


start timestep kper="1" kstp="42" mode="normal"


end timestep


start timestep kper="1" kstp="43" mode="normal"


end timestep


start timestep kper="1" kstp="44" mode="normal"


end timestep


start timestep kper="1" kstp="45" mode="normal"


end timestep


start timestep kper="1" kstp="46" mode="normal"


end timestep


start timestep kper="1" kstp="47" mode="normal"


end timestep


start timestep kper="1" kstp="48" mode="normal"


end timestep


start timestep kper="1" kstp="49" mode="normal"


end timestep


start timestep kper="1" kstp="50" mode="normal"


end timestep


start timestep kper="1" kstp="51" mode="normal"


end timestep


start timestep kper="1" kstp="52" mode="normal"


end timestep


start timestep kper="1" kstp="53" mode="normal"


end timestep


start timestep kper="1" kstp="54" mode="normal"


end timestep


start timestep kper="1" kstp="55" mode="normal"


end timestep


start timestep kper="1" kstp="56" mode="normal"


end timestep


start timestep kper="1" kstp="57" mode="normal"


end timestep


start timestep kper="1" kstp="58" mode="normal"


end timestep


start timestep kper="1" kstp="59" mode="normal"


end timestep


start timestep kper="1" kstp="60" mode="normal"


end timestep


start timestep kper="1" kstp="61" mode="normal"


end timestep


start timestep kper="1" kstp="62" mode="normal"


end timestep


start timestep kper="1" kstp="63" mode="normal"


end timestep


start timestep kper="1" kstp="64" mode="normal"


end timestep


start timestep kper="1" kstp="65" mode="normal"


end timestep


start timestep kper="1" kstp="66" mode="normal"


end timestep


start timestep kper="1" kstp="67" mode="normal"


end timestep


start timestep kper="1" kstp="68" mode="normal"


end timestep


start timestep kper="1" kstp="69" mode="normal"


end timestep


start timestep kper="1" kstp="70" mode="normal"


end timestep


start timestep kper="1" kstp="71" mode="normal"


end timestep


start timestep kper="1" kstp="72" mode="normal"


end timestep


start timestep kper="1" kstp="73" mode="normal"


end timestep


start timestep kper="1" kstp="74" mode="normal"


end timestep


start timestep kper="1" kstp="75" mode="normal"


end timestep


start timestep kper="1" kstp="76" mode="normal"


end timestep


start timestep kper="1" kstp="77" mode="normal"


end timestep


start timestep kper="1" kstp="78" mode="normal"


end timestep


start timestep kper="1" kstp="79" mode="normal"


end timestep


start timestep kper="1" kstp="80" mode="normal"


end timestep


start timestep kper="1" kstp="81" mode="normal"


end timestep


start timestep kper="1" kstp="82" mode="normal"


end timestep


start timestep kper="1" kstp="83" mode="normal"


end timestep


start timestep kper="1" kstp="84" mode="normal"


end timestep


start timestep kper="1" kstp="85" mode="normal"


end timestep


start timestep kper="1" kstp="86" mode="normal"


end timestep


start timestep kper="1" kstp="87" mode="normal"


end timestep


start timestep kper="1" kstp="88" mode="normal"


end timestep


start timestep kper="1" kstp="89" mode="normal"


end timestep


start timestep kper="1" kstp="90" mode="normal"


end timestep


start timestep kper="1" kstp="91" mode="normal"


end timestep


start timestep kper="1" kstp="92" mode="normal"


end timestep


start timestep kper="1" kstp="93" mode="normal"


end timestep


start timestep kper="1" kstp="94" mode="normal"


end timestep


start timestep kper="1" kstp="95" mode="normal"


end timestep


start timestep kper="1" kstp="96" mode="normal"


end timestep


start timestep kper="1" kstp="97" mode="normal"


end timestep


start timestep kper="1" kstp="98" mode="normal"


end timestep


start timestep kper="1" kstp="99" mode="normal"


end timestep


start timestep kper="1" kstp="100" mode="normal"


end timestep


start timestep kper="1" kstp="101" mode="normal"


end timestep


start timestep kper="1" kstp="102" mode="normal"


end timestep


start timestep kper="1" kstp="103" mode="normal"


end timestep


start timestep kper="1" kstp="104" mode="normal"


end timestep


start timestep kper="1" kstp="105" mode="normal"


end timestep


start timestep kper="1" kstp="106" mode="normal"


end timestep


start timestep kper="1" kstp="107" mode="normal"


end timestep


start timestep kper="1" kstp="108" mode="normal"


end timestep


start timestep kper="1" kstp="109" mode="normal"


end timestep


start timestep kper="1" kstp="110" mode="normal"


end timestep


start timestep kper="1" kstp="111" mode="normal"


end timestep


start timestep kper="1" kstp="112" mode="normal"


end timestep


start timestep kper="1" kstp="113" mode="normal"


end timestep


start timestep kper="1" kstp="114" mode="normal"


end timestep


start timestep kper="1" kstp="115" mode="normal"


end timestep


start timestep kper="1" kstp="116" mode="normal"


end timestep


start timestep kper="1" kstp="117" mode="normal"


end timestep


start timestep kper="1" kstp="118" mode="normal"


end timestep


start timestep kper="1" kstp="119" mode="normal"


end timestep


start timestep kper="1" kstp="120" mode="normal"


end timestep


start timestep kper="1" kstp="121" mode="normal"


end timestep


start timestep kper="1" kstp="122" mode="normal"


end timestep


start timestep kper="1" kstp="123" mode="normal"


end timestep


start timestep kper="1" kstp="124" mode="normal"


end timestep


start timestep kper="1" kstp="125" mode="normal"


end timestep


start timestep kper="1" kstp="126" mode="normal"


end timestep


start timestep kper="1" kstp="127" mode="normal"


end timestep


start timestep kper="1" kstp="128" mode="normal"


end timestep


start timestep kper="1" kstp="129" mode="normal"


end timestep


start timestep kper="1" kstp="130" mode="normal"


end timestep


start timestep kper="1" kstp="131" mode="normal"


end timestep


start timestep kper="1" kstp="132" mode="normal"


end timestep


start timestep kper="1" kstp="133" mode="normal"


end timestep


start timestep kper="1" kstp="134" mode="normal"


end timestep


start timestep kper="1" kstp="135" mode="normal"


end timestep


start timestep kper="1" kstp="136" mode="normal"


end timestep


start timestep kper="1" kstp="137" mode="normal"


end timestep


start timestep kper="1" kstp="138" mode="normal"


end timestep


start timestep kper="1" kstp="139" mode="normal"


end timestep


start timestep kper="1" kstp="140" mode="normal"


end timestep


start timestep kper="1" kstp="141" mode="normal"


end timestep


start timestep kper="1" kstp="142" mode="normal"


end timestep


start timestep kper="1" kstp="143" mode="normal"


end timestep


start timestep kper="1" kstp="144" mode="normal"


end timestep


start timestep kper="1" kstp="145" mode="normal"


end timestep


start timestep kper="1" kstp="146" mode="normal"


end timestep


start timestep kper="1" kstp="147" mode="normal"


end timestep


start timestep kper="1" kstp="148" mode="normal"


end timestep


start timestep kper="1" kstp="149" mode="normal"


end timestep


start timestep kper="1" kstp="150" mode="normal"


end timestep


start timestep kper="1" kstp="151" mode="normal"


end timestep


start timestep kper="1" kstp="152" mode="normal"


end timestep


start timestep kper="1" kstp="153" mode="normal"


end timestep


start timestep kper="1" kstp="154" mode="normal"


end timestep


start timestep kper="1" kstp="155" mode="normal"


end timestep


start timestep kper="1" kstp="156" mode="normal"


end timestep


start timestep kper="1" kstp="157" mode="normal"


end timestep


start timestep kper="1" kstp="158" mode="normal"


end timestep


start timestep kper="1" kstp="159" mode="normal"


end timestep


start timestep kper="1" kstp="160" mode="normal"


end timestep


start timestep kper="1" kstp="161" mode="normal"


end timestep


start timestep kper="1" kstp="162" mode="normal"


end timestep


start timestep kper="1" kstp="163" mode="normal"


end timestep


start timestep kper="1" kstp="164" mode="normal"


end timestep


start timestep kper="1" kstp="165" mode="normal"


end timestep


start timestep kper="1" kstp="166" mode="normal"


end timestep


start timestep kper="1" kstp="167" mode="normal"


end timestep


start timestep kper="1" kstp="168" mode="normal"


end timestep


start timestep kper="1" kstp="169" mode="normal"


end timestep


start timestep kper="1" kstp="170" mode="normal"


end timestep


start timestep kper="1" kstp="171" mode="normal"


end timestep


start timestep kper="1" kstp="172" mode="normal"


end timestep


start timestep kper="1" kstp="173" mode="normal"


end timestep


start timestep kper="1" kstp="174" mode="normal"


end timestep


start timestep kper="1" kstp="175" mode="normal"


end timestep


start timestep kper="1" kstp="176" mode="normal"


end timestep


start timestep kper="1" kstp="177" mode="normal"


end timestep


start timestep kper="1" kstp="178" mode="normal"


end timestep


start timestep kper="1" kstp="179" mode="normal"


end timestep


start timestep kper="1" kstp="180" mode="normal"


end timestep


start timestep kper="1" kstp="181" mode="normal"


end timestep


start timestep kper="1" kstp="182" mode="normal"


end timestep


start timestep kper="1" kstp="183" mode="normal"


end timestep


start timestep kper="1" kstp="184" mode="normal"


end timestep


start timestep kper="1" kstp="185" mode="normal"


end timestep


start timestep kper="1" kstp="186" mode="normal"


end timestep


start timestep kper="1" kstp="187" mode="normal"


end timestep


start timestep kper="1" kstp="188" mode="normal"


end timestep


start timestep kper="1" kstp="189" mode="normal"


end timestep


start timestep kper="1" kstp="190" mode="normal"


end timestep


start timestep kper="1" kstp="191" mode="normal"


end timestep


start timestep kper="1" kstp="192" mode="normal"


end timestep


start timestep kper="1" kstp="193" mode="normal"


end timestep


start timestep kper="1" kstp="194" mode="normal"


end timestep


start timestep kper="1" kstp="195" mode="normal"


end timestep


start timestep kper="1" kstp="196" mode="normal"


end timestep


start timestep kper="1" kstp="197" mode="normal"


end timestep


start timestep kper="1" kstp="198" mode="normal"


end timestep


start timestep kper="1" kstp="199" mode="normal"


end timestep


start timestep kper="1" kstp="200" mode="normal"


end timestep


start timestep kper="1" kstp="201" mode="normal"


end timestep


start timestep kper="1" kstp="202" mode="normal"


end timestep


start timestep kper="1" kstp="203" mode="normal"


end timestep


start timestep kper="1" kstp="204" mode="normal"


end timestep


start timestep kper="1" kstp="205" mode="normal"


end timestep


start timestep kper="1" kstp="206" mode="normal"


end timestep


start timestep kper="1" kstp="207" mode="normal"


end timestep


start timestep kper="1" kstp="208" mode="normal"


end timestep


start timestep kper="1" kstp="209" mode="normal"


end timestep


start timestep kper="1" kstp="210" mode="normal"


end timestep


start timestep kper="1" kstp="211" mode="normal"


end timestep


start timestep kper="1" kstp="212" mode="normal"


end timestep


start timestep kper="1" kstp="213" mode="normal"


end timestep


start timestep kper="1" kstp="214" mode="normal"


end timestep


start timestep kper="1" kstp="215" mode="normal"


end timestep


start timestep kper="1" kstp="216" mode="normal"


end timestep


start timestep kper="1" kstp="217" mode="normal"


end timestep


start timestep kper="1" kstp="218" mode="normal"


end timestep


start timestep kper="1" kstp="219" mode="normal"


end timestep


start timestep kper="1" kstp="220" mode="normal"


end timestep


start timestep kper="1" kstp="221" mode="normal"


end timestep


start timestep kper="1" kstp="222" mode="normal"


end timestep


start timestep kper="1" kstp="223" mode="normal"


end timestep


start timestep kper="1" kstp="224" mode="normal"


end timestep


start timestep kper="1" kstp="225" mode="normal"


end timestep


start timestep kper="1" kstp="226" mode="normal"


end timestep


start timestep kper="1" kstp="227" mode="normal"


end timestep


start timestep kper="1" kstp="228" mode="normal"


end timestep


start timestep kper="1" kstp="229" mode="normal"


end timestep


start timestep kper="1" kstp="230" mode="normal"


end timestep


start timestep kper="1" kstp="231" mode="normal"


end timestep


start timestep kper="1" kstp="232" mode="normal"


end timestep


start timestep kper="1" kstp="233" mode="normal"


end timestep


start timestep kper="1" kstp="234" mode="normal"


end timestep


start timestep kper="1" kstp="235" mode="normal"


end timestep


start timestep kper="1" kstp="236" mode="normal"


end timestep


start timestep kper="1" kstp="237" mode="normal"


end timestep


start timestep kper="1" kstp="238" mode="normal"


end timestep


start timestep kper="1" kstp="239" mode="normal"


end timestep


start timestep kper="1" kstp="240" mode="normal"


end timestep


start timestep kper="1" kstp="241" mode="normal"


end timestep


start timestep kper="1" kstp="242" mode="normal"


end timestep


start timestep kper="1" kstp="243" mode="normal"


end timestep


start timestep kper="1" kstp="244" mode="normal"


end timestep


start timestep kper="1" kstp="245" mode="normal"


end timestep


start timestep kper="1" kstp="246" mode="normal"


end timestep


start timestep kper="1" kstp="247" mode="normal"


end timestep


start timestep kper="1" kstp="248" mode="normal"


end timestep


start timestep kper="1" kstp="249" mode="normal"


end timestep


start timestep kper="1" kstp="250" mode="normal"


end timestep


start timestep kper="1" kstp="251" mode="normal"


end timestep


start timestep kper="1" kstp="252" mode="normal"


end timestep


start timestep kper="1" kstp="253" mode="normal"


end timestep


start timestep kper="1" kstp="254" mode="normal"


end timestep


start timestep kper="1" kstp="255" mode="normal"


end timestep


start timestep kper="1" kstp="256" mode="normal"


end timestep


start timestep kper="1" kstp="257" mode="normal"


end timestep


start timestep kper="1" kstp="258" mode="normal"


end timestep


start timestep kper="1" kstp="259" mode="normal"


end timestep


start timestep kper="1" kstp="260" mode="normal"


end timestep


start timestep kper="1" kstp="261" mode="normal"


end timestep


start timestep kper="1" kstp="262" mode="normal"


end timestep


start timestep kper="1" kstp="263" mode="normal"


end timestep


start timestep kper="1" kstp="264" mode="normal"


end timestep


start timestep kper="1" kstp="265" mode="normal"


end timestep


start timestep kper="1" kstp="266" mode="normal"


end timestep


start timestep kper="1" kstp="267" mode="normal"


end timestep


start timestep kper="1" kstp="268" mode="normal"


end timestep


start timestep kper="1" kstp="269" mode="normal"


end timestep


start timestep kper="1" kstp="270" mode="normal"


end timestep


start timestep kper="1" kstp="271" mode="normal"


end timestep


start timestep kper="1" kstp="272" mode="normal"


end timestep


start timestep kper="1" kstp="273" mode="normal"


end timestep


start timestep kper="1" kstp="274" mode="normal"


end timestep


start timestep kper="1" kstp="275" mode="normal"


end timestep


start timestep kper="1" kstp="276" mode="normal"


end timestep


start timestep kper="1" kstp="277" mode="normal"


end timestep


start timestep kper="1" kstp="278" mode="normal"


end timestep


start timestep kper="1" kstp="279" mode="normal"


end timestep


start timestep kper="1" kstp="280" mode="normal"


end timestep


start timestep kper="1" kstp="281" mode="normal"


end timestep


start timestep kper="1" kstp="282" mode="normal"


end timestep


start timestep kper="1" kstp="283" mode="normal"


end timestep


start timestep kper="1" kstp="284" mode="normal"


end timestep


start timestep kper="1" kstp="285" mode="normal"


end timestep


start timestep kper="1" kstp="286" mode="normal"


end timestep


start timestep kper="1" kstp="287" mode="normal"


end timestep


start timestep kper="1" kstp="288" mode="normal"


end timestep


start timestep kper="1" kstp="289" mode="normal"


end timestep


start timestep kper="1" kstp="290" mode="normal"


end timestep


start timestep kper="1" kstp="291" mode="normal"


end timestep


start timestep kper="1" kstp="292" mode="normal"


end timestep


start timestep kper="1" kstp="293" mode="normal"


end timestep


start timestep kper="1" kstp="294" mode="normal"


end timestep


start timestep kper="1" kstp="295" mode="normal"


end timestep


start timestep kper="1" kstp="296" mode="normal"


end timestep


start timestep kper="1" kstp="297" mode="normal"


end timestep


start timestep kper="1" kstp="298" mode="normal"


end timestep


start timestep kper="1" kstp="299" mode="normal"


end timestep


start timestep kper="1" kstp="300" mode="normal"


end timestep


start timestep kper="1" kstp="301" mode="normal"


end timestep


start timestep kper="1" kstp="302" mode="normal"


end timestep


start timestep kper="1" kstp="303" mode="normal"


end timestep


start timestep kper="1" kstp="304" mode="normal"


end timestep


start timestep kper="1" kstp="305" mode="normal"


end timestep


start timestep kper="1" kstp="306" mode="normal"


end timestep


start timestep kper="1" kstp="307" mode="normal"


end timestep


start timestep kper="1" kstp="308" mode="normal"


end timestep


start timestep kper="1" kstp="309" mode="normal"


end timestep


start timestep kper="1" kstp="310" mode="normal"


end timestep


start timestep kper="1" kstp="311" mode="normal"


end timestep


start timestep kper="1" kstp="312" mode="normal"


end timestep


start timestep kper="1" kstp="313" mode="normal"


end timestep


start timestep kper="1" kstp="314" mode="normal"


end timestep


start timestep kper="1" kstp="315" mode="normal"


end timestep


start timestep kper="1" kstp="316" mode="normal"


end timestep


start timestep kper="1" kstp="317" mode="normal"


end timestep


start timestep kper="1" kstp="318" mode="normal"


end timestep


start timestep kper="1" kstp="319" mode="normal"


end timestep


start timestep kper="1" kstp="320" mode="normal"


end timestep


start timestep kper="1" kstp="321" mode="normal"


end timestep


start timestep kper="1" kstp="322" mode="normal"


end timestep


start timestep kper="1" kstp="323" mode="normal"


end timestep


start timestep kper="1" kstp="324" mode="normal"


end timestep


start timestep kper="1" kstp="325" mode="normal"


end timestep


start timestep kper="1" kstp="326" mode="normal"


end timestep


start timestep kper="1" kstp="327" mode="normal"


end timestep


start timestep kper="1" kstp="328" mode="normal"


end timestep


start timestep kper="1" kstp="329" mode="normal"


end timestep


start timestep kper="1" kstp="330" mode="normal"


end timestep


start timestep kper="1" kstp="331" mode="normal"


end timestep


start timestep kper="1" kstp="332" mode="normal"


end timestep


start timestep kper="1" kstp="333" mode="normal"


end timestep


start timestep kper="1" kstp="334" mode="normal"


end timestep


start timestep kper="1" kstp="335" mode="normal"


end timestep


start timestep kper="1" kstp="336" mode="normal"


end timestep


start timestep kper="1" kstp="337" mode="normal"


end timestep


start timestep kper="1" kstp="338" mode="normal"


end timestep


start timestep kper="1" kstp="339" mode="normal"


end timestep


start timestep kper="1" kstp="340" mode="normal"


end timestep


start timestep kper="1" kstp="341" mode="normal"


end timestep


start timestep kper="1" kstp="342" mode="normal"


end timestep


start timestep kper="1" kstp="343" mode="normal"


end timestep


start timestep kper="1" kstp="344" mode="normal"


end timestep


start timestep kper="1" kstp="345" mode="normal"


end timestep


start timestep kper="1" kstp="346" mode="normal"


end timestep


start timestep kper="1" kstp="347" mode="normal"


end timestep


start timestep kper="1" kstp="348" mode="normal"


end timestep


start timestep kper="1" kstp="349" mode="normal"


end timestep


start timestep kper="1" kstp="350" mode="normal"


end timestep


start timestep kper="1" kstp="351" mode="normal"


end timestep


start timestep kper="1" kstp="352" mode="normal"


end timestep


start timestep kper="1" kstp="353" mode="normal"


end timestep


start timestep kper="1" kstp="354" mode="normal"


end timestep


start timestep kper="1" kstp="355" mode="normal"


end timestep


start timestep kper="1" kstp="356" mode="normal"


end timestep


start timestep kper="1" kstp="357" mode="normal"


end timestep


start timestep kper="1" kstp="358" mode="normal"


end timestep


start timestep kper="1" kstp="359" mode="normal"


end timestep


start timestep kper="1" kstp="360" mode="normal"


end timestep


start timestep kper="1" kstp="361" mode="normal"


end timestep


start timestep kper="1" kstp="362" mode="normal"


end timestep


start timestep kper="1" kstp="363" mode="normal"


end timestep


start timestep kper="1" kstp="364" mode="normal"


end timestep


start timestep kper="1" kstp="365" mode="normal"

 UBDSV1 SAVING           STO-SS ON UNIT   1013 AT TIME STEP    365, STRESS PERIOD      1
 UBDSV1 SAVING     FLOW-JA-FACE ON UNIT   1013 AT TIME STEP    365, STRESS PERIOD      1
 UBDSV06 SAVING       DATA-SPDIS IN MODEL GWF-ES7          PACKAGE NPF             CONNECTED TO MODEL GWF-ES7          PACKAGE NPF              ON UNIT   1013 AT TIME STEP    365, STRESS PERIOD      1
 UBDSV06 SAVING              CHD IN MODEL GWF-ES7          PACKAGE GWF-ES7         CONNECTED TO MODEL GWF-ES7          PACKAGE CHD-1            ON UNIT   1013 AT TIME STEP    365, STRESS PERIOD      1
1
  HEAD IN LAYER   1 AT END OF TIME STEP 365 IN STRESS PERIOD    1
  ---------------------------------------------------------------------------

                1               2               3               4               5               6               7               8               9              10
               11              12              13              14              15              16              17              18              19              20
               21              22              23              24              25              26
 ................................................................................................................................................................................................................................................................................................................................................................................................................................
   1      3100.00         3100.00         3100.00         3100.00         3100.00         3100.00         3100.00         3100.00         3100.00         3100.00    
          3100.00         3100.00         3100.00         3100.00         3100.00         3100.00         3100.00         3100.00         3100.00         3100.00    
          3100.00         3097.76         3096.43         3095.59         3095.10         3094.86    
   2      3100.00         3099.65         3099.38         3099.20         3099.08         3099.00         3098.94         3098.90         3098.87         3098.85    
          3098.82         3098.80         3098.78         3098.76         3098.74         3098.70         3098.66         3098.60         3098.49         3098.30    
          3097.89         3096.84         3095.93         3095.26         3094.83         3094.63    
   3      3100.00         3099.21         3098.68         3098.35         3098.13         3097.98         3097.87         3097.80         3097.74         3097.69    
          3097.65         3097.61         3097.57         3097.53         3097.48         3097.42         3097.34         3097.23         3097.07         3096.82    
          3096.42         3095.79         3095.18         3094.69         3094.35         3094.18    
   4      3100.00         3098.52         3097.79         3097.37         3097.10         3096.91         3096.77         3096.67         3096.59         3096.52    
          3096.47         3096.41         3096.36         3096.30         3096.23         3096.15         3096.05         3095.92         3095.74         3095.50    
          3095.16         3094.74         3094.31         3093.96         3093.70         3093.57    
   5      3097.63         3097.08         3096.60         3096.24         3095.98         3095.79         3095.64         3095.53         3095.43         3095.35    
          3095.28         3095.21         3095.15         3095.08         3095.00         3094.90         3094.79         3094.66         3094.48         3094.26    
          3093.99         3093.68         3093.38         3093.12         3092.93         3092.83    
   6      3095.81         3095.57         3095.28         3095.02         3094.80         3094.62         3094.48         3094.36         3094.26         3094.17    
          3094.09         3094.02         3093.94         3093.86         3093.77         3093.68         3093.56         3093.43         3093.27         3093.08    
          3092.86         3092.63         3092.40         3092.21         3092.07         3092.00    
   7      3094.24         3094.12         3093.94         3093.75         3093.57         3093.42         3093.29         3093.18         3093.08         3092.99    
          3092.90         3092.82         3092.74         3092.65         3092.56         3092.47         3092.35         3092.23         3092.08         3091.92    
          3091.74         3091.56         3091.39         3091.25         3091.14         3091.09    
   8      3092.79         3092.71         3092.60         3092.46         3092.33         3092.20         3092.08         3091.98         3091.88         3091.79    
          3091.71         3091.62         3091.54         3091.45         3091.36         3091.27         3091.16         3091.04         3090.91         3090.77    
          3090.63         3090.49         3090.35         3090.24         3090.16         3090.12    
   9      3091.40         3091.36         3091.28         3091.18         3091.07         3090.97         3090.87         3090.77         3090.68         3090.59    
          3090.51         3090.43         3090.34         3090.26         3090.17         3090.08         3089.98         3089.87         3089.76         3089.64    
          3089.52         3089.40         3089.30         3089.21         3089.15         3089.11    
  10      3090.07         3090.04         3089.98         3089.90         3089.82         3089.73         3089.64         3089.56         3089.47         3089.39    
          3089.31         3089.23         3089.15         3089.07         3088.98         3088.89         3088.80         3088.70         3088.60         3088.50    
          3088.40         3088.30         3088.22         3088.15         3088.10         3088.08    
  11      3088.76         3088.74         3088.70         3088.64         3088.57         3088.50         3088.42         3088.34         3088.26         3088.19    
          3088.11         3088.03         3087.96         3087.88         3087.80         3087.71         3087.63         3087.54         3087.45         3087.36    
          3087.28         3087.20         3087.13         3087.07         3087.03         3087.01    
  12      3087.48         3087.46         3087.43         3087.38         3087.33         3087.26         3087.20         3087.13         3087.06         3086.98    
          3086.91         3086.84         3086.77         3086.69         3086.61         3086.54         3086.46         3086.38         3086.30         3086.22    
          3086.15         3086.08         3086.02         3085.98         3085.94         3085.93    
  13      3086.22         3086.20         3086.17         3086.14         3086.09         3086.03         3085.98         3085.91         3085.85         3085.78    
          3085.71         3085.64         3085.58         3085.50         3085.43         3085.36         3085.29         3085.22         3085.14         3085.08    
          3085.01         3084.95         3084.90         3084.87         3084.84         3084.82    
  14      3084.97         3084.95         3084.93         3084.90         3084.86         3084.81         3084.76         3084.70         3084.64         3084.58    
          3084.52         3084.45         3084.39         3084.32         3084.25         3084.19         3084.12         3084.05         3083.99         3083.93    
          3083.87         3083.82         3083.78         3083.74         3083.72         3083.71    
  15      3083.73         3083.72         3083.70         3083.67         3083.63         3083.59         3083.54         3083.49         3083.44         3083.38    
          3083.32         3083.26         3083.20         3083.14         3083.07         3083.01         3082.95         3082.89         3082.83         3082.77    
          3082.72         3082.68         3082.64         3082.61         3082.59         3082.58    
  16      3082.50         3082.49         3082.47         3082.45         3082.42         3082.38         3082.33         3082.29         3082.24         3082.18    
          3082.13         3082.07         3082.01         3081.95         3081.89         3081.83         3081.77         3081.72         3081.67         3081.62    
          3081.57         3081.53         3081.50         3081.47         3081.45         3081.44    
  17      3081.28         3081.27         3081.26         3081.23         3081.20         3081.17         3081.13         3081.08         3081.04         3080.99    
          3080.93         3080.88         3080.82         3080.77         3080.71         3080.66         3080.60         3080.55         3080.50         3080.45    
          3080.41         3080.37         3080.34         3080.32         3080.30         3080.30    
  18      3080.07         3080.06         3080.05         3080.03         3080.00         3079.97         3079.93         3079.89         3079.84         3079.79    
          3079.74         3079.69         3079.64         3079.58         3079.53         3079.48         3079.42         3079.38         3079.33         3079.29    
          3079.25         3079.21         3079.18         3079.16         3079.15         3079.14    
  19      3078.86         3078.86         3078.84         3078.82         3078.80         3078.77         3078.73         3078.69         3078.65         3078.60    
          3078.55         3078.50         3078.45         3078.40         3078.35         3078.30         3078.25         3078.20         3078.15         3078.11    
          3078.08         3078.05         3078.02         3078.00         3077.99         3077.98    
  20      3077.67         3077.66         3077.65         3077.63         3077.60         3077.57         3077.54         3077.50         3077.46         3077.41    
          3077.36         3077.32         3077.27         3077.21         3077.16         3077.11         3077.07         3077.02         3076.98         3076.94    
          3076.90         3076.87         3076.85         3076.83         3076.82         3076.81    
  21      3076.47         3076.47         3076.46         3076.44         3076.41         3076.38         3076.35         3076.31         3076.27         3076.23    
          3076.18         3076.13         3076.08         3076.03         3075.98         3075.93         3075.88         3075.84         3075.80         3075.76    
          3075.72         3075.69         3075.67         3075.65         3075.64         3075.63    
  22      3075.29         3075.28         3075.27         3075.25         3075.23         3075.20         3075.17         3075.13         3075.09         3075.04    
          3074.99         3074.95         3074.90         3074.85         3074.80         3074.75         3074.70         3074.65         3074.61         3074.57    
          3074.54         3074.51         3074.49         3074.47         3074.46         3074.45    
  23      3074.11         3074.10         3074.09         3074.07         3074.05         3074.02         3073.99         3073.95         3073.90         3073.86    
          3073.81         3073.76         3073.71         3073.66         3073.61         3073.56         3073.51         3073.47         3073.42         3073.39    
          3073.35         3073.32         3073.30         3073.28         3073.27         3073.26    
  24      3072.94         3072.93         3072.92         3072.90         3072.88         3072.84         3072.81         3072.77         3072.73         3072.68    
          3072.63         3072.58         3072.53         3072.47         3072.42         3072.37         3072.32         3072.28         3072.23         3072.19    
          3072.16         3072.13         3072.10         3072.09         3072.07         3072.07    
  25      3071.77         3071.77         3071.75         3071.73         3071.71         3071.68         3071.64         3071.60         3071.55         3071.50    
          3071.45         3071.40         3071.34         3071.29         3071.24         3071.18         3071.13         3071.08         3071.04         3071.00    
          3070.96         3070.93         3070.90         3070.88         3070.87         3070.86    
  26      3070.61         3070.61         3070.59         3070.57         3070.54         3070.51         3070.47         3070.43         3070.38         3070.33    
          3070.27         3070.22         3070.16         3070.10         3070.05         3069.99         3069.94         3069.89         3069.84         3069.80    
          3069.76         3069.72         3069.70         3069.68         3069.66         3069.66    
  27      3069.46         3069.45         3069.44         3069.42         3069.39         3069.35         3069.31         3069.26         3069.21         3069.16    
          3069.10         3069.04         3068.98         3068.92         3068.86         3068.80         3068.74         3068.69         3068.63         3068.59    
          3068.55         3068.51         3068.48         3068.46         3068.45         3068.44    
  28      3068.32         3068.31         3068.29         3068.27         3068.24         3068.20         3068.15         3068.10         3068.05         3067.99    
          3067.92         3067.86         3067.79         3067.73         3067.66         3067.60         3067.54         3067.48         3067.43         3067.38    
          3067.33         3067.30         3067.27         3067.24         3067.23         3067.22    
  29      3067.18         3067.17         3067.15         3067.13         3067.09         3067.05         3067.00         3066.95         3066.89         3066.82    
          3066.75         3066.68         3066.61         3066.54         3066.47         3066.40         3066.34         3066.27         3066.21         3066.16    
          3066.11         3066.07         3066.04         3066.01         3066.00         3065.99    
  30      3066.05         3066.04         3066.02         3066.00         3065.96         3065.91         3065.86         3065.80         3065.73         3065.66    
          3065.58         3065.51         3065.43         3065.35         3065.28         3065.20         3065.13         3065.06         3065.00         3064.94    
          3064.89         3064.84         3064.80         3064.78         3064.76         3064.75    
  31      3064.94         3064.93         3064.90         3064.87         3064.83         3064.78         3064.72         3064.65         3064.58         3064.50    
          3064.42         3064.33         3064.25         3064.16         3064.08         3064.00         3063.92         3063.84         3063.77         3063.71    
          3063.65         3063.60         3063.56         3063.53         3063.51         3063.50    
  32      3063.83         3063.82         3063.80         3063.76         3063.71         3063.65         3063.59         3063.51         3063.43         3063.34    
          3063.25         3063.16         3063.07         3062.97         3062.88         3062.79         3062.70         3062.62         3062.54         3062.47    
          3062.41         3062.35         3062.31         3062.27         3062.25         3062.24    
  33      3062.74         3062.73         3062.70         3062.66         3062.60         3062.54         3062.46         3062.38         3062.29         3062.19    
          3062.09         3061.99         3061.88         3061.78         3061.68         3061.58         3061.48         3061.39         3061.31         3061.23    
          3061.16         3061.10         3061.05         3061.01         3060.98         3060.97    
  34      3061.66         3061.64         3061.61         3061.57         3061.51         3061.43         3061.35         3061.25         3061.15         3061.04    
          3060.93         3060.82         3060.70         3060.59         3060.47         3060.36         3060.26         3060.16         3060.06         3059.98    
          3059.90         3059.83         3059.77         3059.73         3059.70         3059.68    
  35      3060.60         3060.58         3060.54         3060.49         3060.42         3060.34         3060.24         3060.14         3060.02         3059.90    
          3059.77         3059.65         3059.52         3059.39         3059.27         3059.15         3059.03         3058.92         3058.81         3058.71    
          3058.63         3058.55         3058.49         3058.43         3058.40         3058.38    
  36      3059.55         3059.53         3059.49         3059.43         3059.35         3059.26         3059.15         3059.03         3058.90         3058.76    
          3058.62         3058.48         3058.34         3058.19         3058.06         3057.92         3057.79         3057.67         3057.55         3057.44    
          3057.35         3057.26         3057.18         3057.13         3057.09         3057.06    
  37      3058.53         3058.51         3058.46         3058.39         3058.30         3058.19         3058.06         3057.93         3057.78         3057.62    
          3057.47         3057.31         3057.15         3056.99         3056.84         3056.70         3056.55         3056.42         3056.29         3056.16    
          3056.05         3055.95         3055.87         3055.80         3055.75         3055.73    
  38      3057.53         3057.50         3057.45         3057.37         3057.26         3057.14         3056.99         3056.83         3056.67         3056.49    
          3056.32         3056.14         3055.96         3055.79         3055.62         3055.46         3055.31         3055.16         3055.01         3054.88    
          3054.75         3054.63         3054.53         3054.45         3054.39         3054.36    
  39      3056.56         3056.53         3056.46         3056.37         3056.25         3056.10         3055.94         3055.75         3055.56         3055.36    
          3055.17         3054.97         3054.77         3054.58         3054.40         3054.22         3054.05         3053.89         3053.73         3053.58    
          3053.43         3053.30         3053.18         3053.08         3053.01         3052.97    
  40      3055.62         3055.58         3055.51         3055.40         3055.26         3055.09         3054.89         3054.68         3054.46         3054.24    
          3054.01         3053.79         3053.58         3053.37         3053.17         3052.98         3052.79         3052.62         3052.44         3052.27    
          3052.11         3051.95         3051.80         3051.68         3051.59         3051.54    
  41      3054.72         3054.68         3054.59         3054.46         3054.29         3054.09         3053.87         3053.63         3053.37         3053.11    
          3052.86         3052.61         3052.37         3052.15         3051.93         3051.73         3051.53         3051.34         3051.15         3050.96    
          3050.77         3050.59         3050.41         3050.25         3050.13         3050.06    
  42      3053.87         3053.81         3053.71         3053.56         3053.36         3053.13         3052.86         3052.58         3052.28         3051.98    
          3051.69         3051.42         3051.16         3050.91         3050.68         3050.47         3050.26         3050.06         3049.85         3049.65    
          3049.43         3049.22         3049.00         3048.79         3048.61         3048.51    
  43      3053.06         3053.00         3052.88         3052.70         3052.47         3052.19         3051.88         3051.54         3051.19         3050.85    
          3050.51         3050.21         3049.92         3049.66         3049.43         3049.20         3048.99         3048.78         3048.56         3048.34    
          3048.10         3047.85         3047.57         3047.29         3047.03         3046.85    
  44      3052.32         3052.25         3052.11         3051.90         3051.62         3051.29         3050.92         3050.51         3050.10         3049.69    
          3049.31         3048.97         3048.67         3048.40         3048.15         3047.93         3047.71         3047.50         3047.28         3047.05    
          3046.79         3046.49         3046.15         3045.76         3045.35         3045.03    
  45      3051.65         3051.57         3051.40         3051.15         3050.83         3050.44         3049.99         3049.50         3049.00         3048.52    
          3048.08         3047.70         3047.38         3047.10         3046.86         3046.64         3046.43         3046.23         3046.02         3045.78    
          3045.51         3045.19         3044.78         3044.26         3043.60         3042.88    
  46      3051.06         3050.97         3050.78         3050.49         3050.11         3049.64         3049.10         3048.50         3047.88         3047.29    
          3046.79         3046.37         3046.04         3045.77         3045.54         3045.34         3045.15         3044.97         3044.77         3044.55    
          3044.29         3043.97         3043.53         3042.90         3041.90         3040.00    
  47      3050.57         3050.46         3050.25         3049.92         3049.48         3048.92         3048.26         3047.51         3046.72         3045.98    
          3045.40         3044.97         3044.64         3044.39         3044.19         3044.02         3043.87         3043.71         3043.55         3043.37    
          3043.14         3042.85         3042.46         3041.91         3041.12         3040.00    
  48      3050.19         3050.07         3049.83         3049.46         3048.95         3048.31         3047.51         3046.56         3045.52         3044.52    
          3043.87         3043.45         3043.17         3042.97         3042.82         3042.69         3042.58         3042.47         3042.35         3042.22    
          3042.05         3041.84         3041.56         3041.17         3040.65         3040.00    
  49      3049.93         3049.80         3049.54         3049.14         3048.58         3047.84         3046.90         3045.72         3044.27         3042.72    
          3042.09         3041.79         3041.61         3041.50         3041.42         3041.35         3041.29         3041.23         3041.17         3041.10    
          3041.01         3040.90         3040.75         3040.56         3040.30         3040.00    
  50      3049.80         3049.66         3049.39         3048.97         3048.38         3047.59         3046.54         3045.13         3043.14         3040.00    
          3040.00         3040.00         3040.00         3040.00         3040.00         3040.00         3040.00         3040.00         3040.00         3040.00    
          3040.00         3040.00         3040.00         3040.00         3040.00         3040.00    
1
  HEAD IN LAYER   2 AT END OF TIME STEP 365 IN STRESS PERIOD    1
  ---------------------------------------------------------------------------

                1               2               3               4               5               6               7               8               9              10
               11              12              13              14              15              16              17              18              19              20
               21              22              23              24              25              26
 ................................................................................................................................................................................................................................................................................................................................................................................................................................
   1      3100.00         3100.00         3100.00         3100.00         3100.00         3100.00         3100.00         3100.00         3100.00         3100.00    
          3100.00         3100.00         3100.00         3100.00         3100.00         3100.00         3100.00         3100.00         3100.00         3100.00    
          3100.00         3097.76         3096.43         3095.59         3095.10         3094.86    
   2      3100.00         3099.65         3099.38         3099.20         3099.08         3099.00         3098.94         3098.90         3098.87         3098.85    
          3098.82         3098.80         3098.78         3098.76         3098.74         3098.70         3098.66         3098.60         3098.49         3098.30    
          3097.89         3096.84         3095.93         3095.26         3094.83         3094.63    
   3      3100.00         3099.21         3098.68         3098.35         3098.13         3097.98         3097.87         3097.80         3097.74         3097.69    
          3097.65         3097.61         3097.57         3097.53         3097.48         3097.42         3097.34         3097.23         3097.07         3096.82    
          3096.42         3095.79         3095.18         3094.69         3094.35         3094.18    
   4      3100.00         3098.52         3097.79         3097.37         3097.10         3096.91         3096.77         3096.67         3096.59         3096.52    
          3096.47         3096.41         3096.36         3096.30         3096.23         3096.15         3096.05         3095.92         3095.74         3095.50    
          3095.16         3094.74         3094.31         3093.96         3093.70         3093.57    
   5      3097.63         3097.08         3096.60         3096.24         3095.98         3095.79         3095.64         3095.53         3095.43         3095.35    
          3095.28         3095.21         3095.15         3095.08         3095.00         3094.90         3094.79         3094.66         3094.48         3094.26    
          3093.99         3093.68         3093.38         3093.12         3092.93         3092.83    
   6      3095.81         3095.57         3095.28         3095.02         3094.80         3094.62         3094.48         3094.36         3094.26         3094.17    
          3094.09         3094.02         3093.94         3093.86         3093.77         3093.68         3093.56         3093.43         3093.27         3093.08    
          3092.86         3092.63         3092.40         3092.21         3092.07         3092.00    
   7      3094.24         3094.12         3093.94         3093.75         3093.57         3093.42         3093.29         3093.18         3093.08         3092.99    
          3092.90         3092.82         3092.74         3092.65         3092.56         3092.47         3092.35         3092.23         3092.08         3091.92    
          3091.74         3091.56         3091.39         3091.25         3091.14         3091.09    
   8      3092.79         3092.71         3092.60         3092.46         3092.33         3092.20         3092.08         3091.98         3091.88         3091.79    
          3091.71         3091.62         3091.54         3091.45         3091.36         3091.27         3091.16         3091.04         3090.91         3090.77    
          3090.63         3090.49         3090.35         3090.24         3090.16         3090.12    
   9      3091.40         3091.36         3091.28         3091.18         3091.07         3090.97         3090.87         3090.77         3090.68         3090.59    
          3090.51         3090.43         3090.34         3090.26         3090.17         3090.08         3089.98         3089.87         3089.76         3089.64    
          3089.52         3089.40         3089.30         3089.21         3089.15         3089.11    
  10      3090.07         3090.04         3089.98         3089.90         3089.82         3089.73         3089.64         3089.56         3089.47         3089.39    
          3089.31         3089.23         3089.15         3089.07         3088.98         3088.89         3088.80         3088.70         3088.60         3088.50    
          3088.40         3088.30         3088.22         3088.15         3088.10         3088.08    
  11      3088.76         3088.74         3088.70         3088.64         3088.57         3088.50         3088.42         3088.34         3088.26         3088.19    
          3088.11         3088.03         3087.96         3087.88         3087.80         3087.71         3087.63         3087.54         3087.45         3087.36    
          3087.28         3087.20         3087.13         3087.07         3087.03         3087.01    
  12      3087.48         3087.46         3087.43         3087.38         3087.33         3087.26         3087.20         3087.13         3087.06         3086.98    
          3086.91         3086.84         3086.77         3086.69         3086.61         3086.54         3086.46         3086.38         3086.30         3086.22    
          3086.15         3086.08         3086.02         3085.98         3085.94         3085.93    
  13      3086.22         3086.20         3086.17         3086.14         3086.09         3086.03         3085.98         3085.91         3085.85         3085.78    
          3085.71         3085.64         3085.58         3085.50         3085.43         3085.36         3085.29         3085.22         3085.14         3085.08    
          3085.01         3084.95         3084.90         3084.87         3084.84         3084.82    
  14      3084.97         3084.95         3084.93         3084.90         3084.86         3084.81         3084.76         3084.70         3084.64         3084.58    
          3084.52         3084.45         3084.39         3084.32         3084.25         3084.19         3084.12         3084.05         3083.99         3083.93    
          3083.87         3083.82         3083.78         3083.74         3083.72         3083.71    
  15      3083.73         3083.72         3083.70         3083.67         3083.63         3083.59         3083.54         3083.49         3083.44         3083.38    
          3083.32         3083.26         3083.20         3083.14         3083.07         3083.01         3082.95         3082.89         3082.83         3082.77    
          3082.72         3082.68         3082.64         3082.61         3082.59         3082.58    
  16      3082.50         3082.49         3082.47         3082.45         3082.42         3082.38         3082.33         3082.29         3082.24         3082.18    
          3082.13         3082.07         3082.01         3081.95         3081.89         3081.83         3081.77         3081.72         3081.67         3081.62    
          3081.57         3081.53         3081.50         3081.47         3081.45         3081.44    
  17      3081.28         3081.27         3081.26         3081.23         3081.20         3081.17         3081.13         3081.08         3081.04         3080.99    
          3080.93         3080.88         3080.82         3080.77         3080.71         3080.66         3080.60         3080.55         3080.50         3080.45    
          3080.41         3080.37         3080.34         3080.32         3080.30         3080.30    
  18      3080.07         3080.06         3080.05         3080.03         3080.00         3079.97         3079.93         3079.89         3079.84         3079.79    
          3079.74         3079.69         3079.64         3079.58         3079.53         3079.48         3079.42         3079.38         3079.33         3079.29    
          3079.25         3079.21         3079.18         3079.16         3079.15         3079.14    
  19      3078.86         3078.86         3078.84         3078.82         3078.80         3078.77         3078.73         3078.69         3078.65         3078.60    
          3078.55         3078.50         3078.45         3078.40         3078.35         3078.30         3078.25         3078.20         3078.15         3078.11    
          3078.08         3078.05         3078.02         3078.00         3077.99         3077.98    
  20      3077.67         3077.66         3077.65         3077.63         3077.60         3077.57         3077.54         3077.50         3077.46         3077.41    
          3077.36         3077.32         3077.27         3077.21         3077.16         3077.11         3077.07         3077.02         3076.98         3076.94    
          3076.90         3076.87         3076.85         3076.83         3076.82         3076.81    
  21      3076.47         3076.47         3076.46         3076.44         3076.41         3076.38         3076.35         3076.31         3076.27         3076.23    
          3076.18         3076.13         3076.08         3076.03         3075.98         3075.93         3075.88         3075.84         3075.80         3075.76    
          3075.72         3075.69         3075.67         3075.65         3075.64         3075.63    
  22      3075.29         3075.28         3075.27         3075.25         3075.23         3075.20         3075.17         3075.13         3075.09         3075.04    
          3074.99         3074.95         3074.90         3074.85         3074.80         3074.75         3074.70         3074.65         3074.61         3074.57    
          3074.54         3074.51         3074.49         3074.47         3074.46         3074.45    
  23      3074.11         3074.10         3074.09         3074.07         3074.05         3074.02         3073.99         3073.95         3073.90         3073.86    
          3073.81         3073.76         3073.71         3073.66         3073.61         3073.56         3073.51         3073.47         3073.42         3073.39    
          3073.35         3073.32         3073.30         3073.28         3073.27         3073.26    
  24      3072.94         3072.93         3072.92         3072.90         3072.88         3072.84         3072.81         3072.77         3072.73         3072.68    
          3072.63         3072.58         3072.53         3072.47         3072.42         3072.37         3072.32         3072.28         3072.23         3072.19    
          3072.16         3072.13         3072.10         3072.09         3072.07         3072.07    
  25      3071.77         3071.77         3071.75         3071.73         3071.71         3071.68         3071.64         3071.60         3071.55         3071.50    
          3071.45         3071.40         3071.34         3071.29         3071.24         3071.18         3071.13         3071.08         3071.04         3071.00    
          3070.96         3070.93         3070.90         3070.88         3070.87         3070.86    
  26      3070.61         3070.61         3070.59         3070.57         3070.54         3070.51         3070.47         3070.43         3070.38         3070.33    
          3070.27         3070.22         3070.16         3070.10         3070.05         3069.99         3069.94         3069.89         3069.84         3069.80    
          3069.76         3069.72         3069.70         3069.68         3069.66         3069.66    
  27      3069.46         3069.45         3069.44         3069.42         3069.39         3069.35         3069.31         3069.26         3069.21         3069.16    
          3069.10         3069.04         3068.98         3068.92         3068.86         3068.80         3068.74         3068.69         3068.63         3068.59    
          3068.55         3068.51         3068.48         3068.46         3068.45         3068.44    
  28      3068.32         3068.31         3068.29         3068.27         3068.24         3068.20         3068.15         3068.10         3068.05         3067.99    
          3067.92         3067.86         3067.79         3067.73         3067.66         3067.60         3067.54         3067.48         3067.43         3067.38    
          3067.33         3067.30         3067.27         3067.24         3067.23         3067.22    
  29      3067.18         3067.17         3067.15         3067.13         3067.09         3067.05         3067.00         3066.95         3066.89         3066.82    
          3066.75         3066.68         3066.61         3066.54         3066.47         3066.40         3066.34         3066.27         3066.21         3066.16    
          3066.11         3066.07         3066.04         3066.01         3066.00         3065.99    
  30      3066.05         3066.04         3066.02         3066.00         3065.96         3065.91         3065.86         3065.80         3065.73         3065.66    
          3065.58         3065.51         3065.43         3065.35         3065.28         3065.20         3065.13         3065.06         3065.00         3064.94    
          3064.89         3064.84         3064.80         3064.78         3064.76         3064.75    
  31      3064.94         3064.93         3064.90         3064.87         3064.83         3064.78         3064.72         3064.65         3064.58         3064.50    
          3064.42         3064.33         3064.25         3064.16         3064.08         3064.00         3063.92         3063.84         3063.77         3063.71    
          3063.65         3063.60         3063.56         3063.53         3063.51         3063.50    
  32      3063.83         3063.82         3063.80         3063.76         3063.71         3063.65         3063.59         3063.51         3063.43         3063.34    
          3063.25         3063.16         3063.07         3062.97         3062.88         3062.79         3062.70         3062.62         3062.54         3062.47    
          3062.41         3062.35         3062.31         3062.27         3062.25         3062.24    
  33      3062.74         3062.73         3062.70         3062.66         3062.60         3062.54         3062.46         3062.38         3062.29         3062.19    
          3062.09         3061.99         3061.88         3061.78         3061.68         3061.58         3061.48         3061.39         3061.31         3061.23    
          3061.16         3061.10         3061.05         3061.01         3060.98         3060.97    
  34      3061.66         3061.64         3061.61         3061.57         3061.51         3061.43         3061.35         3061.25         3061.15         3061.04    
          3060.93         3060.82         3060.70         3060.59         3060.47         3060.36         3060.26         3060.16         3060.06         3059.98    
          3059.90         3059.83         3059.77         3059.73         3059.70         3059.68    
  35      3060.60         3060.58         3060.54         3060.49         3060.42         3060.34         3060.24         3060.14         3060.02         3059.90    
          3059.77         3059.65         3059.52         3059.39         3059.27         3059.15         3059.03         3058.92         3058.81         3058.71    
          3058.63         3058.55         3058.49         3058.43         3058.40         3058.38    
  36      3059.55         3059.53         3059.49         3059.43         3059.35         3059.26         3059.15         3059.03         3058.90         3058.76    
          3058.62         3058.48         3058.34         3058.19         3058.06         3057.92         3057.79         3057.67         3057.55         3057.44    
          3057.35         3057.26         3057.18         3057.13         3057.09         3057.06    
  37      3058.53         3058.51         3058.46         3058.39         3058.30         3058.19         3058.06         3057.93         3057.78         3057.62    
          3057.47         3057.31         3057.15         3056.99         3056.84         3056.70         3056.55         3056.42         3056.29         3056.16    
          3056.05         3055.95         3055.87         3055.80         3055.75         3055.73    
  38      3057.53         3057.50         3057.45         3057.37         3057.26         3057.14         3056.99         3056.83         3056.67         3056.49    
          3056.32         3056.14         3055.96         3055.79         3055.62         3055.46         3055.31         3055.16         3055.01         3054.88    
          3054.75         3054.63         3054.53         3054.45         3054.39         3054.36    
  39      3056.56         3056.53         3056.46         3056.37         3056.25         3056.10         3055.94         3055.75         3055.56         3055.36    
          3055.17         3054.97         3054.77         3054.58         3054.40         3054.22         3054.05         3053.89         3053.73         3053.58    
          3053.43         3053.30         3053.18         3053.08         3053.01         3052.97    
  40      3055.62         3055.58         3055.51         3055.40         3055.26         3055.09         3054.89         3054.68         3054.46         3054.24    
          3054.01         3053.79         3053.58         3053.37         3053.17         3052.98         3052.79         3052.62         3052.44         3052.27    
          3052.11         3051.95         3051.80         3051.68         3051.59         3051.54    
  41      3054.72         3054.68         3054.59         3054.46         3054.29         3054.09         3053.87         3053.63         3053.37         3053.11    
          3052.86         3052.61         3052.37         3052.15         3051.93         3051.73         3051.53         3051.34         3051.15         3050.96    
          3050.77         3050.59         3050.41         3050.25         3050.13         3050.06    
  42      3053.87         3053.81         3053.71         3053.56         3053.36         3053.13         3052.86         3052.58         3052.28         3051.98    
          3051.69         3051.42         3051.16         3050.91         3050.68         3050.47         3050.26         3050.06         3049.85         3049.65    
          3049.43         3049.22         3049.00         3048.79         3048.61         3048.51    
  43      3053.06         3053.00         3052.88         3052.70         3052.47         3052.19         3051.88         3051.54         3051.19         3050.85    
          3050.51         3050.21         3049.92         3049.66         3049.43         3049.20         3048.99         3048.78         3048.56         3048.34    
          3048.10         3047.85         3047.57         3047.29         3047.03         3046.85    
  44      3052.32         3052.25         3052.11         3051.90         3051.62         3051.29         3050.92         3050.51         3050.10         3049.69    
          3049.31         3048.97         3048.67         3048.40         3048.15         3047.93         3047.71         3047.50         3047.28         3047.05    
          3046.79         3046.49         3046.15         3045.76         3045.35         3045.03    
  45      3051.65         3051.57         3051.40         3051.15         3050.83         3050.44         3049.99         3049.50         3049.00         3048.52    
          3048.08         3047.70         3047.38         3047.10         3046.86         3046.64         3046.43         3046.23         3046.02         3045.78    
          3045.51         3045.19         3044.78         3044.26         3043.60         3042.88    
  46      3051.06         3050.97         3050.78         3050.49         3050.11         3049.64         3049.10         3048.50         3047.88         3047.29    
          3046.79         3046.37         3046.04         3045.77         3045.54         3045.34         3045.15         3044.97         3044.77         3044.55    
          3044.29         3043.97         3043.53         3042.90         3041.90         3040.00    
  47      3050.57         3050.46         3050.25         3049.92         3049.48         3048.92         3048.26         3047.51         3046.72         3045.98    
          3045.40         3044.97         3044.64         3044.39         3044.19         3044.02         3043.87         3043.71         3043.55         3043.37    
          3043.14         3042.85         3042.46         3041.91         3041.12         3040.00    
  48      3050.19         3050.07         3049.83         3049.46         3048.95         3048.31         3047.51         3046.56         3045.52         3044.52    
          3043.87         3043.45         3043.17         3042.97         3042.82         3042.69         3042.58         3042.47         3042.35         3042.22    
          3042.05         3041.84         3041.56         3041.17         3040.65         3040.00    
  49      3049.93         3049.80         3049.54         3049.14         3048.58         3047.84         3046.90         3045.72         3044.27         3042.72    
          3042.09         3041.79         3041.61         3041.50         3041.42         3041.35         3041.29         3041.23         3041.17         3041.10    
          3041.01         3040.90         3040.75         3040.56         3040.30         3040.00    
  50      3049.80         3049.66         3049.39         3048.97         3048.38         3047.59         3046.54         3045.13         3043.14         3040.00    
          3040.00         3040.00         3040.00         3040.00         3040.00         3040.00         3040.00         3040.00         3040.00         3040.00    
          3040.00         3040.00         3040.00         3040.00         3040.00         3040.00    
1
  HEAD IN LAYER   3 AT END OF TIME STEP 365 IN STRESS PERIOD    1
  ---------------------------------------------------------------------------

                1               2               3               4               5               6               7               8               9              10
               11              12              13              14              15              16              17              18              19              20
               21              22              23              24              25              26
 ................................................................................................................................................................................................................................................................................................................................................................................................................................
   1      3100.00         3100.00         3100.00         3100.00         3100.00         3100.00         3100.00         3100.00         3100.00         3100.00    
          3100.00         3100.00         3100.00         3100.00         3100.00         3100.00         3100.00         3100.00         3100.00         3100.00    
          3100.00         3097.76         3096.43         3095.59         3095.10         3094.86    
   2      3100.00         3099.65         3099.38         3099.20         3099.08         3099.00         3098.94         3098.90         3098.87         3098.85    
          3098.82         3098.80         3098.78         3098.76         3098.74         3098.70         3098.66         3098.60         3098.49         3098.30    
          3097.89         3096.84         3095.93         3095.26         3094.83         3094.63    
   3      3100.00         3099.21         3098.68         3098.35         3098.13         3097.98         3097.87         3097.80         3097.74         3097.69    
          3097.65         3097.61         3097.57         3097.53         3097.48         3097.42         3097.34         3097.23         3097.07         3096.82    
          3096.42         3095.79         3095.18         3094.69         3094.35         3094.18    
   4      3100.00         3098.52         3097.79         3097.37         3097.10         3096.91         3096.77         3096.67         3096.59         3096.52    
          3096.47         3096.41         3096.36         3096.30         3096.23         3096.15         3096.05         3095.92         3095.74         3095.50    
          3095.16         3094.74         3094.31         3093.96         3093.70         3093.57    
   5      3097.63         3097.08         3096.60         3096.24         3095.98         3095.79         3095.64         3095.53         3095.43         3095.35    
          3095.28         3095.21         3095.15         3095.08         3095.00         3094.90         3094.79         3094.66         3094.48         3094.26    
          3093.99         3093.68         3093.38         3093.12         3092.93         3092.83    
   6      3095.81         3095.57         3095.28         3095.02         3094.80         3094.62         3094.48         3094.36         3094.26         3094.17    
          3094.09         3094.02         3093.94         3093.86         3093.77         3093.68         3093.56         3093.43         3093.27         3093.08    
          3092.86         3092.63         3092.40         3092.21         3092.07         3092.00    
[...]
          3089.52         3089.40         3089.30         3089.21         3089.15         3089.11    
  10      3090.07         3090.04         3089.98         3089.90         3089.82         3089.73         3089.64         3089.56         3089.47         3089.39    
          3089.31         3089.23         3089.15         3089.07         3088.98         3088.89         3088.80         3088.70         3088.60         3088.50    
          3088.40         3088.30         3088.22         3088.15         3088.10         3088.08    
  11      3088.76         3088.74         3088.70         3088.64         3088.57         3088.50         3088.42         3088.34         3088.26         3088.19    
          3088.11         3088.03         3087.96         3087.88         3087.80         3087.71         3087.63         3087.54         3087.45         3087.36    
          3087.28         3087.20         3087.13         3087.07         3087.03         3087.01    
  12      3087.48         3087.46         3087.43         3087.38         3087.33         3087.26         3087.20         3087.13         3087.06         3086.98    
          3086.91         3086.84         3086.77         3086.69         3086.61         3086.54         3086.46         3086.38         3086.30         3086.22    
          3086.15         3086.08         3086.02         3085.98         3085.94         3085.93    
  13      3086.22         3086.20         3086.17         3086.14         3086.09         3086.03         3085.98         3085.91         3085.85         3085.78    
          3085.71         3085.64         3085.58         3085.50         3085.43         3085.36         3085.29         3085.22         3085.14         3085.08    
          3085.01         3084.95         3084.90         3084.87         3084.84         3084.82    
  14      3084.97         3084.95         3084.93         3084.90         3084.86         3084.81         3084.76         3084.70         3084.64         3084.58    
          3084.52         3084.45         3084.39         3084.32         3084.25         3084.19         3084.12         3084.05         3083.99         3083.93    
          3083.87         3083.82         3083.78         3083.74         3083.72         3083.71    
  15      3083.73         3083.72         3083.70         3083.67         3083.63         3083.59         3083.54         3083.49         3083.44         3083.38    
          3083.32         3083.26         3083.20         3083.14         3083.07         3083.01         3082.95         3082.89         3082.83         3082.77    
          3082.72         3082.68         3082.64         3082.61         3082.59         3082.58    
  16      3082.50         3082.49         3082.47         3082.45         3082.42         3082.38         3082.33         3082.29         3082.24         3082.18    
          3082.13         3082.07         3082.01         3081.95         3081.89         3081.83         3081.77         3081.72         3081.67         3081.62    
          3081.57         3081.53         3081.50         3081.47         3081.45         3081.44    
  17      3081.28         3081.27         3081.26         3081.23         3081.20         3081.17         3081.13         3081.08         3081.04         3080.99    
          3080.93         3080.88         3080.82         3080.77         3080.71         3080.66         3080.60         3080.55         3080.50         3080.45    
          3080.41         3080.37         3080.34         3080.32         3080.30         3080.30    
  18      3080.07         3080.06         3080.05         3080.03         3080.00         3079.97         3079.93         3079.89         3079.84         3079.79    
          3079.74         3079.69         3079.64         3079.58         3079.53         3079.48         3079.42         3079.38         3079.33         3079.29    
          3079.25         3079.21         3079.18         3079.16         3079.15         3079.14    
  19      3078.86         3078.86         3078.84         3078.82         3078.80         3078.77         3078.73         3078.69         3078.65         3078.60    
          3078.55         3078.50         3078.45         3078.40         3078.35         3078.30         3078.25         3078.20         3078.15         3078.11    
          3078.08         3078.05         3078.02         3078.00         3077.99         3077.98    
  20      3077.67         3077.66         3077.65         3077.63         3077.60         3077.57         3077.54         3077.50         3077.46         3077.41    
          3077.36         3077.32         3077.27         3077.21         3077.16         3077.11         3077.07         3077.02         3076.98         3076.94    
          3076.90         3076.87         3076.85         3076.83         3076.82         3076.81    
  21      3076.47         3076.47         3076.46         3076.44         3076.41         3076.38         3076.35         3076.31         3076.27         3076.23    
          3076.18         3076.13         3076.08         3076.03         3075.98         3075.93         3075.88         3075.84         3075.80         3075.76    
          3075.72         3075.69         3075.67         3075.65         3075.64         3075.63    
  22      3075.29         3075.28         3075.27         3075.25         3075.23         3075.20         3075.17         3075.13         3075.09         3075.04    
          3074.99         3074.95         3074.90         3074.85         3074.80         3074.75         3074.70         3074.65         3074.61         3074.57    
          3074.54         3074.51         3074.49         3074.47         3074.46         3074.45    
  23      3074.11         3074.10         3074.09         3074.07         3074.05         3074.02         3073.99         3073.95         3073.90         3073.86    
          3073.81         3073.76         3073.71         3073.66         3073.61         3073.56         3073.51         3073.47         3073.42         3073.39    
          3073.35         3073.32         3073.30         3073.28         3073.27         3073.26    
  24      3072.94         3072.93         3072.92         3072.90         3072.88         3072.84         3072.81         3072.77         3072.73         3072.68    
          3072.63         3072.58         3072.53         3072.47         3072.42         3072.37         3072.32         3072.28         3072.23         3072.19    
          3072.16         3072.13         3072.10         3072.09         3072.07         3072.07    
  25      3071.77         3071.77         3071.75         3071.73         3071.71         3071.68         3071.64         3071.60         3071.55         3071.50    
          3071.45         3071.40         3071.34         3071.29         3071.24         3071.18         3071.13         3071.08         3071.04         3071.00    
          3070.96         3070.93         3070.90         3070.88         3070.87         3070.86    
  26      3070.61         3070.61         3070.59         3070.57         3070.54         3070.51         3070.47         3070.43         3070.38         3070.33    
          3070.27         3070.22         3070.16         3070.10         3070.05         3069.99         3069.94         3069.89         3069.84         3069.80    
          3069.76         3069.72         3069.70         3069.68         3069.66         3069.66    
  27      3069.46         3069.45         3069.44         3069.42         3069.39         3069.35         3069.31         3069.26         3069.21         3069.16    
          3069.10         3069.04         3068.98         3068.92         3068.86         3068.80         3068.74         3068.69         3068.63         3068.59    
          3068.55         3068.51         3068.48         3068.46         3068.45         3068.44    
  28      3068.32         3068.31         3068.29         3068.27         3068.24         3068.20         3068.15         3068.10         3068.05         3067.99    
          3067.92         3067.86         3067.79         3067.73         3067.66         3067.60         3067.54         3067.48         3067.43         3067.38    
          3067.33         3067.30         3067.27         3067.24         3067.23         3067.22    
  29      3067.18         3067.17         3067.15         3067.13         3067.09         3067.05         3067.00         3066.95         3066.89         3066.82    
          3066.75         3066.68         3066.61         3066.54         3066.47         3066.40         3066.34         3066.27         3066.21         3066.16    
          3066.11         3066.07         3066.04         3066.01         3066.00         3065.99    
  30      3066.05         3066.04         3066.02         3066.00         3065.96         3065.91         3065.86         3065.80         3065.73         3065.66    
          3065.58         3065.51         3065.43         3065.35         3065.28         3065.20         3065.13         3065.06         3065.00         3064.94    
          3064.89         3064.84         3064.80         3064.78         3064.76         3064.75    
  31      3064.94         3064.93         3064.90         3064.87         3064.83         3064.78         3064.72         3064.65         3064.58         3064.50    
          3064.42         3064.33         3064.25         3064.16         3064.08         3064.00         3063.92         3063.84         3063.77         3063.71    
          3063.65         3063.60         3063.56         3063.53         3063.51         3063.50    
  32      3063.83         3063.82         3063.80         3063.76         3063.71         3063.65         3063.59         3063.51         3063.43         3063.34    
          3063.25         3063.16         3063.07         3062.97         3062.88         3062.79         3062.70         3062.62         3062.54         3062.47    
          3062.41         3062.35         3062.31         3062.27         3062.25         3062.24    
  33      3062.74         3062.73         3062.70         3062.66         3062.60         3062.54         3062.46         3062.38         3062.29         3062.19    
          3062.09         3061.99         3061.88         3061.78         3061.68         3061.58         3061.48         3061.39         3061.31         3061.23    
          3061.16         3061.10         3061.05         3061.01         3060.98         3060.97    
  34      3061.66         3061.64         3061.61         3061.57         3061.51         3061.43         3061.35         3061.25         3061.15         3061.04    
          3060.93         3060.82         3060.70         3060.59         3060.47         3060.36         3060.26         3060.16         3060.06         3059.98    
          3059.90         3059.83         3059.77         3059.73         3059.70         3059.68    
  35      3060.60         3060.58         3060.54         3060.49         3060.42         3060.34         3060.24         3060.14         3060.02         3059.90    
          3059.77         3059.65         3059.52         3059.39         3059.27         3059.15         3059.03         3058.92         3058.81         3058.71    
          3058.63         3058.55         3058.49         3058.43         3058.40         3058.38    
  36      3059.55         3059.53         3059.49         3059.43         3059.35         3059.26         3059.15         3059.03         3058.90         3058.76    
          3058.62         3058.48         3058.34         3058.19         3058.06         3057.92         3057.79         3057.67         3057.55         3057.44    
          3057.35         3057.26         3057.18         3057.13         3057.09         3057.06    
  37      3058.53         3058.51         3058.46         3058.39         3058.30         3058.19         3058.06         3057.93         3057.78         3057.62    
          3057.47         3057.31         3057.15         3056.99         3056.84         3056.70         3056.55         3056.42         3056.29         3056.16    
          3056.05         3055.95         3055.87         3055.80         3055.75         3055.73    
  38      3057.53         3057.50         3057.45         3057.37         3057.26         3057.14         3056.99         3056.83         3056.67         3056.49    
          3056.32         3056.14         3055.96         3055.79         3055.62         3055.46         3055.31         3055.16         3055.01         3054.88    
          3054.75         3054.63         3054.53         3054.45         3054.39         3054.36    
  39      3056.56         3056.53         3056.46         3056.37         3056.25         3056.10         3055.94         3055.75         3055.56         3055.36    
          3055.17         3054.97         3054.77         3054.58         3054.40         3054.22         3054.05         3053.89         3053.73         3053.58    
          3053.43         3053.30         3053.18         3053.08         3053.01         3052.97    
  40      3055.62         3055.58         3055.51         3055.40         3055.26         3055.09         3054.89         3054.68         3054.46         3054.24    
          3054.01         3053.79         3053.58         3053.37         3053.17         3052.98         3052.79         3052.62         3052.44         3052.27    
          3052.11         3051.95         3051.80         3051.68         3051.59         3051.54    
  41      3054.72         3054.68         3054.59         3054.46         3054.29         3054.09         3053.87         3053.63         3053.37         3053.11    
          3052.86         3052.61         3052.37         3052.15         3051.93         3051.73         3051.53         3051.34         3051.15         3050.96    
          3050.77         3050.59         3050.41         3050.25         3050.13         3050.06    
  42      3053.87         3053.81         3053.71         3053.56         3053.36         3053.13         3052.86         3052.58         3052.28         3051.98    
          3051.69         3051.42         3051.16         3050.91         3050.68         3050.47         3050.26         3050.06         3049.85         3049.65    
          3049.43         3049.22         3049.00         3048.79         3048.61         3048.51    
  43      3053.06         3053.00         3052.88         3052.70         3052.47         3052.19         3051.88         3051.54         3051.19         3050.85    
          3050.51         3050.21         3049.92         3049.66         3049.43         3049.20         3048.99         3048.78         3048.56         3048.34    
          3048.10         3047.85         3047.57         3047.29         3047.03         3046.85    
  44      3052.32         3052.25         3052.11         3051.90         3051.62         3051.29         3050.92         3050.51         3050.10         3049.69    
          3049.31         3048.97         3048.67         3048.40         3048.15         3047.93         3047.71         3047.50         3047.28         3047.05    
          3046.79         3046.49         3046.15         3045.76         3045.35         3045.03    
  45      3051.65         3051.57         3051.40         3051.15         3050.83         3050.44         3049.99         3049.50         3049.00         3048.52    
          3048.08         3047.70         3047.38         3047.10         3046.86         3046.64         3046.43         3046.23         3046.02         3045.78    
          3045.51         3045.19         3044.78         3044.26         3043.60         3042.88    
  46      3051.06         3050.97         3050.78         3050.49         3050.11         3049.64         3049.10         3048.50         3047.88         3047.29    
          3046.79         3046.37         3046.04         3045.77         3045.54         3045.34         3045.15         3044.97         3044.77         3044.55    
          3044.29         3043.97         3043.53         3042.90         3041.90         3040.00    
  47      3050.57         3050.46         3050.25         3049.92         3049.48         3048.92         3048.26         3047.51         3046.72         3045.98    
          3045.40         3044.97         3044.64         3044.39         3044.19         3044.02         3043.87         3043.71         3043.55         3043.37    
          3043.14         3042.85         3042.46         3041.91         3041.12         3040.00    
  48      3050.19         3050.07         3049.83         3049.46         3048.95         3048.31         3047.51         3046.56         3045.52         3044.52    
          3043.87         3043.45         3043.17         3042.97         3042.82         3042.69         3042.58         3042.47         3042.35         3042.22    
          3042.05         3041.84         3041.56         3041.17         3040.65         3040.00    
  49      3049.93         3049.80         3049.54         3049.14         3048.58         3047.84         3046.90         3045.72         3044.27         3042.72    
          3042.09         3041.79         3041.61         3041.50         3041.42         3041.35         3041.29         3041.23         3041.17         3041.10    
          3041.01         3040.90         3040.75         3040.56         3040.30         3040.00    
  50      3049.80         3049.66         3049.39         3048.97         3048.38         3047.59         3046.54         3045.13         3043.14         3040.00    
          3040.00         3040.00         3040.00         3040.00         3040.00         3040.00         3040.00         3040.00         3040.00         3040.00    
          3040.00         3040.00         3040.00         3040.00         3040.00         3040.00    

 HEAD WILL BE SAVED ON UNIT 1014 AT END OF TIME STEP  365, STRESS PERIOD    2


  VOLUME BUDGET FOR ENTIRE MODEL AT END OF TIME STEP  365, STRESS PERIOD   2
  ---------------------------------------------------------------------------------------------------

     CUMULATIVE VOLUME      L**3       RATES FOR THIS TIME STEP      L**3/T          PACKAGE NAME    
     ------------------                 ------------------------                     ----------------

           IN:                                      IN:
           ---                                      ---
              STO-SS =     6186303.5057                STO-SS =       2.9469E-12     STORAGE                          
                 CHD =       1.1153E+12                   CHD =       17682.7382     CHD-1                            

            TOTAL IN =       1.1153E+12              TOTAL IN =       17682.7382

          OUT:                                     OUT:
          ----                                     ----
              STO-SS =     6935658.6777                STO-SS =       1.0024E-12     STORAGE                          
                 CHD =       1.1153E+12                   CHD =       17682.7382     CHD-1                            

           TOTAL OUT =       1.1153E+12             TOTAL OUT =       17682.7382

            IN - OUT =          54.6182              IN - OUT =       6.1794E-07

 PERCENT DISCREPANCY =           0.00     PERCENT DISCREPANCY =           0.00




         TIME SUMMARY AT END OF TIME STEP  365 IN STRESS PERIOD    2
                    SECONDS     MINUTES      HOURS       DAYS        YEARS
                    -----------------------------------------------------------
   TIME STEP LENGTH  86400.      1440.0      24.000      1.0000     2.73785E-03
 STRESS PERIOD TIME 3.15360E+07 5.25600E+05  8760.0      365.00     0.99932    
         TOTAL TIME 6.30720E+07 1.05120E+06  17520.      730.00      1.9986    


end timestep

