                                   MODFLOW 6
                U.S. GEOLOGICAL SURVEY MODULAR HYDROLOGIC MODEL
                          GROUNDWATER FLOW MODEL (GWF)
                            VERSION 6.6.1 02/10/2025

   MODFLOW 6 compiled Feb 14 2025 13:39:18 with Intel(R) Fortran Intel(R) 64
   Compiler Classic for applications running on Intel(R) 64, Version 2021.7.0
                             Build 20220726_000000

This software has been approved for release by the U.S. Geological 
Survey (USGS). Although the software has been subjected to rigorous 
review, the USGS reserves the right to update the software as needed 
pursuant to further analysis and review. No warranty, expressed or 
implied, is made by the USGS or the U.S. Government as to the 
functionality of the software and related material nor shall the 
fact of release constitute any such warranty. Furthermore, the 
software is released on condition that neither the USGS nor the U.S. 
Government shall be held liable for any damages resulting from its 
authorized or unauthorized use. Also refer to the USGS Water 
Resources Software User Rights Notice for complete use, copyright, 
and distribution information.


As a work of the United States Government, this USGS product is 
in the public domain within the United States. You can copy, 
modify, distribute, and perform the work, even for commercial 
purposes, all without asking permission. Additionally, USGS 
waives copyright and related rights in the work worldwide 
through CC0 1.0 Universal Public Domain Dedication 
(https://creativecommons.org/publicdomain/zero/1.0/).

The following GNU Lesser General Public License (LGPL) libraries
are used in this USGS product:

    SPARSKIT version 2.0
      ilut, luson, and qsplit 
      (https://www-users.cse.umn.edu/~saad/software/SPARSKIT/)

    RCM - Reverse Cuthill McKee Ordering
      (https://people.math.sc.edu/Burkardt/f_src/rcm/rcm.html)

    BLAS - Basic Linear Algebra Subprograms Level 1
      (https://people.math.sc.edu/Burkardt/f_src/blas1_d/blas1_d.html)

    SPARSEKIT - Sparse Matrix Utility Package
      amux, dperm, dvperm, rperm, and cperm
      (https://people.sc.fsu.edu/~jburkardt/f77_src/sparsekit/sparsekit.html)

The following BSD-3 License libraries are used in this USGS product:

    Modern Fortran DAG Library
      Copyright (c) 2018, Jacob Williams
      All rights reserved.
      (https://github.com/jacobwilliams/daglib)

MODFLOW 6 compiler options: -Ilinux/obj_mf6 -O2 -no-heap-arrays -fpe0
-traceback -Qdiag-disable:7416 -Qdiag-disable:7025 -Qdiag-disable:5268 -fpp
-module linux/mod_mf6/ -c -o linux/obj_mf6/compilerversion.o

System command used to initiate simulation:
/home/sensei/mfplayground/modflow-python/mf6.4.1_linux/bin/mf6

MODFLOW was compiled using uniform precision.

Real Variables
  KIND: 8
  TINY (smallest non-zero value):    2.225074-308
  HUGE (largest value):    1.797693+308
  PRECISION: 15
  SIZE IN BITS: 64

Integer Variables
  KIND: 4
  HUGE (largest value): 2147483647
  SIZE IN BITS: 32

Long Integer Variables
  KIND: 8
  HUGE (largest value): 9223372036854775807
  SIZE IN BITS: 64

Logical Variables
  KIND: 4
  SIZE IN BITS: 32
 
 NAMEFILE OPTIONS:
    FLOWS WILL BE SAVED TO BUDGET FILE SPECIFIED IN OUTPUT CONTROL
 END NAMEFILE OPTIONS:

 DIS -- STRUCTURED GRID DISCRETIZATION PACKAGE, VERSION 2 : 3/27/2014 - INPUT READ FROM MEMPATH: __INPUT__/GWF-ES7/DIS                             


 NPF -- NODE PROPERTY FLOW PACKAGE, VERSION 1, 3/30/2015 INPUT READ FROM MEMPATH: __INPUT__/GWF-ES7/NPF                             


 IC -- Initial Conditions Package, Version 8, 3/28/2015 input read from mempath: __INPUT__/GWF-ES7/IC                              


 Setting Discretization Options
    Model length unit [0=UND, 1=FEET, 2=METERS, 3=CENTIMETERS] set as 2
 End Setting Discretization Options

 Setting Discretization Dimensions
    NLAY = 3
    NROW = 50
    NCOL = 26
 End Setting Discretization Dimensions

 Setting Discretization Griddata
    DELR set from input file
    DELC set from input file
    TOP set from input file
    BOTM set from input file
    IDOMAIN set from input file
 End Setting Discretization Griddata

 Setting NPF Options
    Cell-by-cell flow information will be saved to binary file whenever ICBCFL is not zero.
    Specific discharge will be calculated at cell centers and written to DATA-SPDIS in budget file when requested.
 End Setting NPF Options

 Setting NPF Griddata
    ICELLTYPE set from input file
    K set from input file
    K33 set from input file
    K22 not provided.  Setting K22 = K.
 End Setting NPF Griddata


 CHD   -- CHD PACKAGE, VERSION 8, 2/22/2014 INPUT READ FROM MEMPATH: __INPUT__/GWF-ES7/CHD-1                           

 PROCESSING CHD BASE OPTIONS
 END OF CHD BASE OPTIONS

 PROCESSING CHD BASE DIMENSIONS
    MAXBOUND =     135
 END OF CHD BASE DIMENSIONS
    STRT set from input file

 STO -- STORAGE PACKAGE, VERSION 1, 5/19/2014 INPUT READ FROM MEMPATH: __INPUT__/GWF-ES7/STO                             


 PROCESSING STORAGE OPTIONS
    STORAGECOEFFICIENT OPTION:
 Read storage coefficient rather than specific storage
 END OF STORAGE OPTIONS
    BINARY GRID INFORMATION WILL BE WRITTEN TO:
      UNIT NUMBER: 1023
      FILE NAME: gwf-es7.dis.grb

 OPENED gwf-es7.dis.grb
 FILE TYPE:DATA(BINARY)   UNIT 1023   STATUS:REPLACE             
 FORMAT:UNFORMATTED            ACCESS:STREAM              
 ACTION:READWRITE           

      THE LAST TIME STEP WILL BE PRINTED
      THE LAST TIME STEP WILL BE PRINTED
 # File generated by Flopy version 3.9.2 on 11/20/2025 at 22:18:52.

 PROCESSING OC OPTIONS

    BUDGET INFORMATION WILL BE WRITTEN TO:
      UNIT NUMBER: 1024
      FILE NAME: gwf-es7.bud

 OPENED gwf-es7.bud
 FILE TYPE:DATA(BINARY)   UNIT 1024   STATUS:REPLACE             
 FORMAT:UNFORMATTED            ACCESS:STREAM              
 ACTION:READWRITE           

    HEAD INFORMATION WILL BE WRITTEN TO:
      UNIT NUMBER: 1025
      FILE NAME: gwf-es7.hds

 OPENED gwf-es7.hds
 FILE TYPE:DATA(BINARY)   UNIT 1025   STATUS:REPLACE             
 FORMAT:UNFORMATTED            ACCESS:STREAM              
 ACTION:READWRITE           

 END OF OC OPTIONS

start timestep kper="1" kstp="1" mode="normal"


 BEGIN READING OUTPUT CONTROL FOR STRESS PERIOD 1
      THE LAST TIME STEP WILL BE SAVED
      THE LAST TIME STEP WILL BE SAVED
      THE LAST TIME STEP WILL BE PRINTED
      THE LAST TIME STEP WILL BE PRINTED

 END READING OUTPUT CONTROL FOR STRESS PERIOD 1
 UBDSV1 SAVING           STO-SS ON UNIT   1024 AT TIME STEP      1, STRESS PERIOD      1
 UBDSV1 SAVING     FLOW-JA-FACE ON UNIT   1024 AT TIME STEP      1, STRESS PERIOD      1
 UBDSV06 SAVING       DATA-SPDIS IN MODEL GWF-ES7          PACKAGE NPF             CONNECTED TO MODEL GWF-ES7          PACKAGE NPF              ON UNIT   1024 AT TIME STEP      1, STRESS PERIOD      1
 UBDSV06 SAVING              CHD IN MODEL GWF-ES7          PACKAGE GWF-ES7         CONNECTED TO MODEL GWF-ES7          PACKAGE CHD-1            ON UNIT   1024 AT TIME STEP      1, STRESS PERIOD      1
1
  HEAD IN LAYER   1 AT END OF TIME STEP   1 IN STRESS PERIOD    1
  ---------------------------------------------------------------------------

                1               2               3               4               5               6               7               8               9              10
               11              12              13              14              15              16              17              18              19              20
               21              22              23              24              25              26
 ................................................................................................................................................................................................................................................................................................................................................................................................................................
   1      3100.00         3100.00         3100.00         3100.00         3100.00         3100.00         3100.00         3100.00         3100.00         3100.00    
          3100.00         3100.00         3100.00         3100.00         3100.00         3100.00         3100.00         3100.00         3100.00         3100.00    
          3100.00         3098.54         3098.45         3098.43         3098.43         3098.43    
   2      3100.00         3072.95         3071.66         3071.59         3071.58         3071.58         3071.58         3071.58         3071.58         3071.58    
          3071.58         3071.58         3071.58         3071.58         3071.58         3071.58         3071.58         3071.58         3071.58         3071.58    
          3071.57         3071.48         3071.46         3071.45         3071.45         3071.45    
   3      3100.00         3071.65         3070.23         3070.15         3070.14         3070.14         3070.13         3070.13         3070.13         3070.13    
          3070.13         3070.13         3070.13         3070.13         3070.13         3070.13         3070.13         3070.13         3070.13         3070.13    
          3070.13         3070.11         3070.11         3070.10         3070.10         3070.10    
   4      3100.00         3071.51         3070.13         3070.05         3070.04         3070.04         3070.04         3070.04         3070.04         3070.04    
          3070.04         3070.04         3070.04         3070.04         3070.04         3070.04         3070.04         3070.03         3070.03         3070.03    
          3070.03         3070.03         3070.02         3070.02         3070.02         3070.02    
   5      3071.49         3070.19         3070.05         3070.03         3070.02         3070.02         3070.02         3070.02         3070.02         3070.02    
          3070.02         3070.02         3070.02         3070.02         3070.02         3070.02         3070.02         3070.02         3070.02         3070.02    
          3070.01         3070.01         3070.01         3070.01         3070.01         3070.01    
   6      3070.11         3070.04         3070.02         3070.02         3070.01         3070.01         3070.01         3070.01         3070.01         3070.01    
          3070.01         3070.01         3070.01         3070.01         3070.01         3070.01         3070.01         3070.01         3070.01         3070.01    
          3070.01         3070.01         3070.01         3070.01         3070.00         3070.00    
   7      3070.02         3070.02         3070.01         3070.01         3070.01         3070.01         3070.01         3070.00         3070.00         3070.00    
          3070.00         3070.00         3070.00         3070.00         3070.00         3070.00         3070.00         3070.00         3070.00         3070.00    
          3070.00         3070.00         3070.00         3070.00         3070.00         3070.00    
   8      3070.01         3070.01         3070.01         3070.01         3070.00         3070.00         3070.00         3070.00         3070.00         3070.00    
          3070.00         3070.00         3070.00         3070.00         3070.00         3070.00         3070.00         3070.00         3070.00         3070.00    
          3070.00         3070.00         3070.00         3070.00         3070.00         3070.00    
   9      3070.00         3070.00         3070.00         3070.00         3070.00         3070.00         3070.00         3070.00         3070.00         3070.00    
          3070.00         3070.00         3070.00         3070.00         3070.00         3070.00         3070.00         3070.00         3070.00         3070.00    
          3070.00         3070.00         3070.00         3070.00         3070.00         3070.00    
  10      3070.00         3070.00         3070.00         3070.00         3070.00         3070.00         3070.00         3070.00         3070.00         3070.00    
          3070.00         3070.00         3070.00         3070.00         3070.00         3070.00         3070.00         3070.00         3070.00         3070.00    
          3070.00         3070.00         3070.00         3070.00         3070.00         3070.00    
  11      3070.00         3070.00         3070.00         3070.00         3070.00         3070.00         3070.00         3070.00         3070.00         3070.00    
          3070.00         3070.00         3070.00         3070.00         3070.00         3070.00         3070.00         3070.00         3070.00         3070.00    
          3070.00         3070.00         3070.00         3070.00         3070.00         3070.00    
  12      3070.00         3070.00         3070.00         3070.00         3070.00         3070.00         3070.00         3070.00         3070.00         3070.00    
          3070.00         3070.00         3070.00         3070.00         3070.00         3070.00         3070.00         3070.00         3070.00         3070.00    
          3070.00         3070.00         3070.00         3070.00         3070.00         3070.00    
  13      3070.00         3070.00         3070.00         3070.00         3070.00         3070.00         3070.00         3070.00         3070.00         3070.00    
          3070.00         3070.00         3070.00         3070.00         3070.00         3070.00         3070.00         3070.00         3070.00         3070.00    
          3070.00         3070.00         3070.00         3070.00         3070.00         3070.00    
  14      3070.00         3070.00         3070.00         3070.00         3070.00         3070.00         3070.00         3070.00         3070.00         3070.00    
          3070.00         3070.00         3070.00         3070.00         3070.00         3070.00         3070.00         3070.00         3070.00         3070.00    
          3070.00         3070.00         3070.00         3070.00         3070.00         3070.00    
  15      3070.00         3070.00         3070.00         3070.00         3070.00         3070.00         3070.00         3070.00         3070.00         3070.00    
          3070.00         3070.00         3070.00         3070.00         3070.00         3070.00         3070.00         3070.00         3070.00         3070.00    
          3070.00         3070.00         3070.00         3070.00         3070.00         3070.00    
  16      3070.00         3070.00         3070.00         3070.00         3070.00         3070.00         3070.00         3070.00         3070.00         3070.00    
          3070.00         3070.00         3070.00         3070.00         3070.00         3070.00         3070.00         3070.00         3070.00         3070.00    
          3070.00         3070.00         3070.00         3070.00         3070.00         3070.00    
  17      3070.00         3070.00         3070.00         3070.00         3070.00         3070.00         3070.00         3070.00         3070.00         3070.00    
          3070.00         3070.00         3070.00         3070.00         3070.00         3070.00         3070.00         3070.00         3070.00         3070.00    
          3070.00         3070.00         3070.00         3070.00         3070.00         3070.00    
  18      3070.00         3070.00         3070.00         3070.00         3070.00         3070.00         3070.00         3070.00         3070.00         3070.00    
          3070.00         3070.00         3070.00         3070.00         3070.00         3070.00         3070.00         3070.00         3070.00         3070.00    
          3070.00         3070.00         3070.00         3070.00         3070.00         3070.00    
  19      3070.00         3070.00         3070.00         3070.00         3070.00         3070.00         3070.00         3070.00         3070.00         3070.00    
          3070.00         3070.00         3070.00         3070.00         3070.00         3070.00         3070.00         3070.00         3070.00         3070.00    
          3070.00         3070.00         3070.00         3070.00         3070.00         3070.00    
  20      3070.00         3070.00         3070.00         3070.00         3070.00         3070.00         3070.00         3070.00         3070.00         3070.00    
          3070.00         3070.00         3070.00         3070.00         3070.00         3070.00         3070.00         3070.00         3070.00         3070.00    
          3070.00         3070.00         3070.00         3070.00         3070.00         3070.00    
  21      3070.00         3070.00         3070.00         3070.00         3070.00         3070.00         3070.00         3070.00         3070.00         3070.00    
          3070.00         3070.00         3070.00         3070.00         3070.00         3070.00         3070.00         3070.00         3070.00         3070.00    
          3070.00         3070.00         3070.00         3070.00         3070.00         3070.00    
  22      3070.00         3070.00         3070.00         3070.00         3070.00         3070.00         3070.00         3070.00         3070.00         3070.00    
          3070.00         3070.00         3070.00         3070.00         3070.00         3070.00         3070.00         3070.00         3070.00         3070.00    
          3070.00         3070.00         3070.00         3070.00         3070.00         3070.00    
  23      3070.00         3070.00         3070.00         3070.00         3070.00         3070.00         3070.00         3070.00         3070.00         3070.00    
          3070.00         3070.00         3070.00         3070.00         3070.00         3070.00         3070.00         3070.00         3070.00         3070.00    
          3070.00         3070.00         3070.00         3070.00         3070.00         3070.00    
  24      3070.00         3070.00         3070.00         3070.00         3070.00         3070.00         3070.00         3070.00         3070.00         3070.00    
          3070.00         3070.00         3070.00         3070.00         3070.00         3070.00         3070.00         3070.00         3070.00         3070.00    
          3070.00         3070.00         3070.00         3070.00         3070.00         3070.00    
  25      3070.00         3070.00         3070.00         3070.00         3070.00         3070.00         3070.00         3070.00         3070.00         3070.00    
          3070.00         3070.00         3070.00         3070.00         3070.00         3070.00         3070.00         3070.00         3070.00         3070.00    
          3070.00         3070.00         3070.00         3070.00         3070.00         3070.00    
  26      3070.00         3070.00         3070.00         3070.00         3070.00         3070.00         3070.00         3070.00         3070.00         3070.00    
          3070.00         3070.00         3070.00         3070.00         3070.00         3070.00         3070.00         3070.00         3070.00         3070.00    
          3070.00         3070.00         3070.00         3070.00         3070.00         3070.00    
  27      3070.00         3070.00         3070.00         3070.00         3070.00         3070.00         3070.00         3070.00         3070.00         3070.00    
          3070.00         3070.00         3070.00         3070.00         3070.00         3070.00         3070.00         3070.00         3070.00         3070.00    
          3070.00         3070.00         3070.00         3070.00         3070.00         3070.00    
  28      3070.00         3070.00         3070.00         3070.00         3070.00         3070.00         3070.00         3070.00         3070.00         3070.00    
          3070.00         3070.00         3070.00         3070.00         3070.00         3070.00         3070.00         3070.00         3070.00         3070.00    
          3070.00         3070.00         3070.00         3070.00         3070.00         3070.00    
  29      3070.00         3070.00         3070.00         3070.00         3070.00         3070.00         3070.00         3070.00         3070.00         3070.00    
          3070.00         3070.00         3070.00         3070.00         3070.00         3070.00         3070.00         3070.00         3070.00         3070.00    
          3070.00         3070.00         3070.00         3070.00         3070.00         3070.00    
  30      3070.00         3070.00         3070.00         3070.00         3070.00         3070.00         3070.00         3070.00         3070.00         3070.00    
          3070.00         3070.00         3070.00         3070.00         3070.00         3070.00         3070.00         3070.00         3070.00         3070.00    
          3070.00         3070.00         3070.00         3070.00         3070.00         3070.00    
  31      3070.00         3070.00         3070.00         3070.00         3070.00         3070.00         3070.00         3070.00         3070.00         3070.00    
          3070.00         3070.00         3070.00         3070.00         3070.00         3070.00         3070.00         3070.00         3070.00         3070.00    
          3070.00         3070.00         3070.00         3070.00         3070.00         3070.00    
  32      3070.00         3070.00         3070.00         3070.00         3070.00         3070.00         3070.00         3070.00         3070.00         3070.00    
          3070.00         3070.00         3070.00         3070.00         3070.00         3070.00         3070.00         3070.00         3070.00         3070.00    
          3070.00         3070.00         3070.00         3070.00         3070.00         3070.00    
  33      3070.00         3070.00         3070.00         3070.00         3070.00         3070.00         3070.00         3070.00         3070.00         3070.00    
          3070.00         3070.00         3070.00         3070.00         3070.00         3070.00         3070.00         3070.00         3070.00         3070.00    
          3070.00         3070.00         3070.00         3070.00         3070.00         3070.00    
  34      3070.00         3070.00         3070.00         3070.00         3070.00         3070.00         3070.00         3070.00         3070.00         3070.00    
          3070.00         3070.00         3070.00         3070.00         3070.00         3070.00         3070.00         3070.00         3070.00         3070.00    
          3070.00         3070.00         3070.00         3070.00         3070.00         3070.00    
  35      3070.00         3070.00         3070.00         3070.00         3070.00         3070.00         3070.00         3070.00         3070.00         3070.00    
          3070.00         3070.00         3070.00         3070.00         3070.00         3070.00         3070.00         3070.00         3070.00         3070.00    
          3070.00         3070.00         3070.00         3070.00         3070.00         3070.00    
  36      3070.00         3070.00         3070.00         3070.00         3070.00         3070.00         3070.00         3070.00         3070.00         3070.00    
          3070.00         3070.00         3070.00         3070.00         3070.00         3070.00         3070.00         3070.00         3070.00         3070.00    
          3070.00         3070.00         3070.00         3070.00         3070.00         3070.00    
  37      3070.00         3070.00         3070.00         3070.00         3070.00         3070.00         3070.00         3070.00         3070.00         3070.00    
          3070.00         3070.00         3070.00         3070.00         3070.00         3070.00         3070.00         3070.00         3070.00         3070.00    
          3070.00         3070.00         3070.00         3070.00         3070.00         3070.00    
  38      3070.00         3070.00         3070.00         3070.00         3070.00         3070.00         3070.00         3070.00         3070.00         3070.00    
          3070.00         3070.00         3070.00         3070.00         3070.00         3070.00         3070.00         3070.00         3070.00         3070.00    
          3070.00         3070.00         3070.00         3070.00         3070.00         3070.00    
  39      3070.00         3070.00         3070.00         3070.00         3070.00         3070.00         3070.00         3070.00         3070.00         3070.00    
          3070.00         3070.00         3070.00         3070.00         3070.00         3070.00         3070.00         3070.00         3070.00         3070.00    
          3070.00         3070.00         3070.00         3070.00         3070.00         3070.00    
  40      3070.00         3070.00         3070.00         3070.00         3070.00         3070.00         3070.00         3070.00         3070.00         3070.00    
          3070.00         3070.00         3070.00         3070.00         3070.00         3070.00         3070.00         3070.00         3070.00         3070.00    
          3070.00         3070.00         3070.00         3070.00         3070.00         3070.00    
  41      3070.00         3070.00         3070.00         3070.00         3070.00         3070.00         3070.00         3070.00         3070.00         3070.00    
          3070.00         3070.00         3070.00         3070.00         3070.00         3070.00         3070.00         3070.00         3070.00         3070.00    
          3070.00         3070.00         3070.00         3070.00         3070.00         3070.00    
  42      3070.00         3070.00         3070.00         3070.00         3070.00         3070.00         3070.00         3070.00         3070.00         3070.00    
          3070.00         3070.00         3070.00         3070.00         3070.00         3070.00         3070.00         3070.00         3070.00         3070.00    
          3070.00         3070.00         3070.00         3069.99         3069.99         3069.99    
  43      3070.00         3070.00         3070.00         3070.00         3070.00         3070.00         3070.00         3070.00         3070.00         3070.00    
          3070.00         3070.00         3070.00         3070.00         3070.00         3070.00         3070.00         3070.00         3070.00         3070.00    
          3070.00         3069.99         3069.99         3069.99         3069.98         3069.98    
  44      3070.00         3070.00         3070.00         3070.00         3070.00         3070.00         3070.00         3070.00         3070.00         3070.00    
          3070.00         3070.00         3070.00         3070.00         3070.00         3070.00         3070.00         3070.00         3069.99         3069.99    
          3069.99         3069.99         3069.99         3069.98         3069.96         3069.89    
  45      3070.00         3070.00         3070.00         3070.00         3070.00         3070.00         3069.99         3069.99         3069.99         3069.99    
          3069.99         3069.99         3069.99         3069.99         3069.99         3069.99         3069.99         3069.99         3069.99         3069.99    
          3069.99         3069.98         3069.98         3069.96         3069.81         3068.51    
  46      3069.99         3069.99         3069.99         3069.99         3069.99         3069.99         3069.99         3069.99         3069.99         3069.99    
          3069.98         3069.98         3069.98         3069.98         3069.98         3069.98         3069.98         3069.98         3069.98         3069.98    
          3069.98         3069.97         3069.96         3069.88         3068.49         3040.00    
  47      3069.98         3069.98         3069.98         3069.98         3069.98         3069.98         3069.98         3069.98         3069.97         3069.97    
          3069.97         3069.97         3069.97         3069.96         3069.96         3069.96         3069.96         3069.96         3069.96         3069.96    
          3069.96         3069.96         3069.94         3069.85         3068.42         3040.00    
  48      3069.90         3069.90         3069.90         3069.90         3069.90         3069.90         3069.90         3069.89         3069.89         3069.87    
          3069.87         3069.87         3069.87         3069.87         3069.87         3069.87         3069.87         3069.87         3069.87         3069.87    
          3069.86         3069.86         3069.85         3069.76         3068.34         3040.00    
  49      3068.55         3068.55         3068.55         3068.55         3068.55         3068.55         3068.55         3068.54         3068.52         3068.43    
          3068.42         3068.42         3068.42         3068.42         3068.42         3068.42         3068.42         3068.42         3068.42         3068.42    
          3068.42         3068.42         3068.41         3068.34         3067.05         3040.00    
  50      3041.58         3041.58         3041.58         3041.58         3041.58         3041.57         3041.57         3041.55         3041.46         3040.00    
          3040.00         3040.00         3040.00         3040.00         3040.00         3040.00         3040.00         3040.00         3040.00         3040.00    
          3040.00         3040.00         3040.00         3040.00         3040.00         3040.00    
1
  HEAD IN LAYER   2 AT END OF TIME STEP   1 IN STRESS PERIOD    1
  ---------------------------------------------------------------------------

                1               2               3               4               5               6               7               8               9              10
               11              12              13              14              15              16              17              18              19              20
               21              22              23              24              25              26
 ................................................................................................................................................................................................................................................................................................................................................................................................................................
   1      3100.00         3100.00         3100.00         3100.00         3100.00         3100.00         3100.00         3100.00         3100.00         3100.00    
          3100.00         3100.00         3100.00         3100.00         3100.00         3100.00         3100.00         3100.00         3100.00         3100.00    
          3100.00         3094.82         3092.97         3092.19         3091.86         3091.74    
   2      3100.00         3082.06         3079.76         3079.01         3078.71         3078.58         3078.52         3078.50         3078.49         3078.48    
          3078.48         3078.48         3078.48         3078.48         3078.48         3078.48         3078.47         3078.45         3078.41         3078.28    
          3077.86         3076.38         3075.42         3074.91         3074.67         3074.57    
   3      3100.00         3079.52         3076.18         3074.98         3074.49         3074.27         3074.18         3074.13         3074.11         3074.11    
          3074.10         3074.10         3074.10         3074.10         3074.10         3074.09         3074.08         3074.06         3074.01         3073.89    
          3073.61         3073.07         3072.63         3072.35         3072.19         3072.13    
   4      3100.00         3077.92         3074.34         3073.08         3072.55         3072.31         3072.21         3072.16         3072.14         3072.13    
          3072.12         3072.12         3072.12         3072.12         3072.11         3072.11         3072.10         3072.08         3072.04         3071.96    
          3071.82         3071.59         3071.39         3071.25         3071.16         3071.12    
   5      3077.05         3074.23         3072.68         3071.87         3071.47         3071.28         3071.19         3071.14         3071.12         3071.11    
          3071.11         3071.10         3071.10         3071.10         3071.10         3071.09         3071.09         3071.07         3071.05         3071.00    
          3070.93         3070.83         3070.74         3070.67         3070.62         3070.60    
   6      3072.92         3072.19         3071.53         3071.10         3070.85         3070.71         3070.64         3070.61         3070.59         3070.58    
          3070.58         3070.57         3070.57         3070.57         3070.57         3070.57         3070.56         3070.55         3070.54         3070.51    
          3070.48         3070.43         3070.39         3070.35         3070.33         3070.32    
   7      3071.35         3071.11         3070.83         3070.62         3070.48         3070.40         3070.35         3070.33         3070.31         3070.31    
          3070.30         3070.30         3070.30         3070.30         3070.30         3070.29         3070.29         3070.29         3070.28         3070.26    
          3070.25         3070.23         3070.21         3070.19         3070.18         3070.17    
   8      3070.64         3070.56         3070.44         3070.34         3070.27         3070.22         3070.19         3070.17         3070.17         3070.16    
          3070.16         3070.16         3070.16         3070.15         3070.15         3070.15         3070.15         3070.15         3070.14         3070.14    
          3070.13         3070.12         3070.11         3070.10         3070.09         3070.09    
   9      3070.31         3070.28         3070.23         3070.18         3070.15         3070.12         3070.10         3070.09         3070.09         3070.08    
          3070.08         3070.08         3070.08         3070.08         3070.08         3070.08         3070.08         3070.08         3070.07         3070.07    
          3070.07         3070.06         3070.06         3070.05         3070.05         3070.05    
  10      3070.15         3070.14         3070.12         3070.10         3070.08         3070.07         3070.06         3070.05         3070.05         3070.04    
          3070.04         3070.04         3070.04         3070.04         3070.04         3070.04         3070.04         3070.04         3070.04         3070.04    
          3070.03         3070.03         3070.03         3070.03         3070.03         3070.03    
  11      3070.08         3070.07         3070.06         3070.05         3070.04         3070.04         3070.03         3070.03         3070.02         3070.02    
          3070.02         3070.02         3070.02         3070.02         3070.02         3070.02         3070.02         3070.02         3070.02         3070.02    
          3070.02         3070.02         3070.02         3070.01         3070.01         3070.01    
  12      3070.04         3070.04         3070.03         3070.03         3070.02         3070.02         3070.02         3070.01         3070.01         3070.01    
          3070.01         3070.01         3070.01         3070.01         3070.01         3070.01         3070.01         3070.01         3070.01         3070.01    
          3070.01         3070.01         3070.01         3070.01         3070.01         3070.01    
  13      3070.02         3070.02         3070.02         3070.01         3070.01         3070.01         3070.01         3070.01         3070.01         3070.01    
          3070.01         3070.01         3070.01         3070.01         3070.01         3070.01         3070.01         3070.01         3070.01         3070.01    
          3070.00         3070.00         3070.00         3070.00         3070.00         3070.00    
  14      3070.01         3070.01         3070.01         3070.01         3070.01         3070.01         3070.00         3070.00         3070.00         3070.00    
          3070.00         3070.00         3070.00         3070.00         3070.00         3070.00         3070.00         3070.00         3070.00         3070.00    
          3070.00         3070.00         3070.00         3070.00         3070.00         3070.00    
  15      3070.00         3070.00         3070.00         3070.00         3070.00         3070.00         3070.00         3070.00         3070.00         3070.00    
          3070.00         3070.00         3070.00         3070.00         3070.00         3070.00         3070.00         3070.00         3070.00         3070.00    
          3070.00         3070.00         3070.00         3070.00         3070.00         3070.00    
  16      3070.00         3070.00         3070.00         3070.00         3070.00         3070.00         3070.00         3070.00         3070.00         3070.00    
          3070.00         3070.00         3070.00         3070.00         3070.00         3070.00         3070.00         3070.00         3070.00         3070.00    
          3070.00         3070.00         3070.00         3070.00         3070.00         3070.00    
  17      3070.00         3070.00         3070.00         3070.00         3070.00         3070.00         3070.00         3070.00         3070.00         3070.00    
          3070.00         3070.00         3070.00         3070.00         3070.00         3070.00         3070.00         3070.00         3070.00         3070.00    
          3070.00         3070.00         3070.00         3070.00         3070.00         3070.00    
  18      3070.00         3070.00         3070.00         3070.00         3070.00         3070.00         3070.00         3070.00         3070.00         3070.00    
          3070.00         3070.00         3070.00         3070.00         3070.00         3070.00         3070.00         3070.00         3070.00         3070.00    
          3070.00         3070.00         3070.00         3070.00         3070.00         3070.00    
  19      3070.00         3070.00         3070.00         3070.00         3070.00         3070.00         3070.00         3070.00         3070.00         3070.00    
          3070.00         3070.00         3070.00         3070.00         3070.00         3070.00         3070.00         3070.00         3070.00         3070.00    
          3070.00         3070.00         3070.00         3070.00         3070.00         3070.00    
  20      3070.00         3070.00         3070.00         3070.00         3070.00         3070.00         3070.00         3070.00         3070.00         3070.00    
          3070.00         3070.00         3070.00         3070.00         3070.00         3070.00         3070.00         3070.00         3070.00         3070.00    
          3070.00         3070.00         3070.00         3070.00         3070.00         3070.00    
  21      3070.00         3070.00         3070.00         3070.00         3070.00         3070.00         3070.00         3070.00         3070.00         3070.00    
          3070.00         3070.00         3070.00         3070.00         3070.00         3070.00         3070.00         3070.00         3070.00         3070.00    
          3070.00         3070.00         3070.00         3070.00         3070.00         3070.00    
  22      3070.00         3070.00         3070.00         3070.00         3070.00         3070.00         3070.00         3070.00         3070.00         3070.00    
          3070.00         3070.00         3070.00         3070.00         3070.00         3070.00         3070.00         3070.00         3070.00         3070.00    
          3070.00         3070.00         3070.00         3070.00         3070.00         3070.00    
  23      3070.00         3070.00         3070.00         3070.00         3070.00         3070.00         3070.00         3070.00         3070.00         3070.00    
          3070.00         3070.00         3070.00         3070.00         3070.00         3070.00         3070.00         3070.00         3070.00         3070.00    
          3070.00         3070.00         3070.00         3070.00         3070.00         3070.00    
  24      3070.00         3070.00         3070.00         3070.00         3070.00         3070.00         3070.00         3070.00         3070.00         3070.00    
          3070.00         3070.00         3070.00         3070.00         3070.00         3070.00         3070.00         3070.00         3070.00         3070.00    
          3070.00         3070.00         3070.00         3070.00         3070.00         3070.00    
  25      3070.00         3070.00         3070.00         3070.00         3070.00         3070.00         3070.00         3070.00         3070.00         3070.00    
          3070.00         3070.00         3070.00         3070.00         3070.00         3070.00         3070.00         3070.00         3070.00         3070.00    
          3070.00         3070.00         3070.00         3070.00         3070.00         3070.00    
  26      3070.00         3070.00         3070.00         3070.00         3070.00         3070.00         3070.00         3070.00         3070.00         3070.00    
          3070.00         3070.00         3070.00         3070.00         3070.00         3070.00         3070.00         3070.00         3070.00         3070.00    
          3070.00         3070.00         3070.00         3070.00         3070.00         3070.00    
  27      3070.00         3070.00         3070.00         3070.00         3070.00         3070.00         3070.00         3070.00         3070.00         3070.00    
          3070.00         3070.00         3070.00         3070.00         3070.00         3070.00         3070.00         3070.00         3070.00         3070.00    
          3070.00         3070.00         3070.00         3070.00         3070.00         3070.00    
  28      3070.00         3070.00         3070.00         3070.00         3070.00         3070.00         3070.00         3070.00         3070.00         3070.00    
          3070.00         3070.00         3070.00         3070.00         3070.00         3070.00         3070.00         3070.00         3070.00         3070.00    
          3070.00         3070.00         3070.00         3070.00         3070.00         3070.00    
  29      3070.00         3070.00         3070.00         3070.00         3070.00         3070.00         3070.00         3070.00         3070.00         3070.00    
          3070.00         3070.00         3070.00         3070.00         3070.00         3070.00         3070.00         3070.00         3070.00         3070.00    
          3070.00         3070.00         3070.00         3070.00         3070.00         3070.00    
  30      3070.00         3070.00         3070.00         3070.00         3070.00         3070.00         3070.00         3070.00         3070.00         3070.00    
          3070.00         3070.00         3070.00         3070.00         3070.00         3070.00         3070.00         3070.00         3070.00         3070.00    
          3070.00         3070.00         3070.00         3070.00         3070.00         3070.00    
  31      3070.00         3070.00         3070.00         3070.00         3070.00         3070.00         3070.00         3070.00         3070.00         3070.00    
          3070.00         3070.00         3070.00         3070.00         3070.00         3070.00         3070.00         3070.00         3070.00         3070.00    
          3070.00         3070.00         3070.00         3070.00         3070.00         3070.00    
  32      3070.00         3070.00         3070.00         3070.00         3070.00         3070.00         3070.00         3070.00         3070.00         3070.00    
          3070.00         3070.00         3070.00         3070.00         3070.00         3070.00         3070.00         3070.00         3070.00         3070.00    
          3070.00         3070.00         3070.00         3070.00         3070.00         3070.00    
  33      3070.00         3070.00         3070.00         3070.00         3070.00         3070.00         3070.00         3070.00         3070.00         3070.00    
          3070.00         3070.00         3070.00         3070.00         3070.00         3070.00         3070.00         3070.00         3070.00         3070.00    
          3070.00         3070.00         3070.00         3070.00         3070.00         3070.00    
  34      3070.00         3070.00         3070.00         3070.00         3070.00         3070.00         3070.00         3070.00         3070.00         3070.00    
          3070.00         3070.00         3070.00         3070.00         3070.00         3070.00         3070.00         3070.00         3070.00         3070.00    
          3070.00         3070.00         3070.00         3070.00         3070.00         3070.00    
  35      3070.00         3070.00         3070.00         3070.00         3070.00         3070.00         3070.00         3070.00         3070.00         3070.00    
          3070.00         3070.00         3070.00         3070.00         3070.00         3070.00         3070.00         3070.00         3070.00         3070.00    
          3070.00         3070.00         3070.00         3070.00         3070.00         3070.00    
  36      3070.00         3070.00         3070.00         3070.00         3070.00         3070.00         3070.00         3070.00         3070.00         3070.00    
          3070.00         3070.00         3070.00         3070.00         3070.00         3070.00         3070.00         3070.00         3070.00         3070.00    
          3070.00         3069.99         3069.99         3069.99         3069.99         3069.99    
  37      3070.00         3070.00         3070.00         3070.00         3070.00         3070.00         3070.00         3070.00         3070.00         3070.00    
          3070.00         3070.00         3070.00         3070.00         3070.00         3070.00         3070.00         3070.00         3069.99         3069.99    
          3069.99         3069.99         3069.99         3069.99         3069.98         3069.98    
  38      3070.00         3070.00         3070.00         3070.00         3070.00         3070.00         3070.00         3070.00         3070.00         3070.00    
          3069.99         3069.99         3069.99         3069.99         3069.99         3069.99         3069.99         3069.99         3069.99         3069.99    
          3069.99         3069.98         3069.98         3069.97         3069.97         3069.96    
  39      3069.99         3069.99         3069.99         3069.99         3069.99         3069.99         3069.99         3069.99         3069.99         3069.99    
          3069.99         3069.99         3069.99         3069.99         3069.99         3069.99         3069.99         3069.99         3069.98         3069.98    
          3069.97         3069.97         3069.96         3069.94         3069.93         3069.93    
  40      3069.99         3069.99         3069.99         3069.99         3069.99         3069.99         3069.99         3069.98         3069.98         3069.98    
          3069.98         3069.98         3069.98         3069.98         3069.98         3069.98         3069.98         3069.97         3069.97         3069.96    
          3069.95         3069.94         3069.92         3069.89         3069.87         3069.85    
  41      3069.98         3069.98         3069.98         3069.98         3069.98         3069.98         3069.97         3069.97         3069.97         3069.97    
          3069.96         3069.96         3069.96         3069.96         3069.96         3069.96         3069.95         3069.95         3069.94         3069.93    
          3069.91         3069.88         3069.84         3069.79         3069.74         3069.70    
  42      3069.96         3069.96         3069.96         3069.96         3069.96         3069.95         3069.95         3069.94         3069.94         3069.93    
          3069.93         3069.93         3069.92         3069.92         3069.92         3069.92         3069.91         3069.91         3069.90         3069.88    
          3069.84         3069.79         3069.71         3069.60         3069.48         3069.38    
  43      3069.92         3069.92         3069.92         3069.92         3069.92         3069.91         3069.90         3069.89         3069.88         3069.87    
          3069.86         3069.86         3069.85         3069.85         3069.85         3069.84         3069.84         3069.83         3069.81         3069.78    
          3069.73         3069.64         3069.48         3069.25         3068.95         3068.69    
  44      3069.85         3069.85         3069.85         3069.85         3069.84         3069.83         3069.82         3069.80         3069.78         3069.75    
          3069.74         3069.72         3069.71         3069.71         3069.70         3069.70         3069.69         3069.68         3069.66         3069.61    
          3069.53         3069.38         3069.10         3068.62         3067.92         3067.14    
  45      3069.72         3069.72         3069.72         3069.71         3069.70         3069.68         3069.65         3069.61         3069.57         3069.52    
          3069.49         3069.46         3069.45         3069.44         3069.43         3069.42         3069.42         3069.40         3069.37         3069.32    
          3069.20         3068.97         3068.51         3067.62         3065.95         3063.02    
  46      3069.47         3069.46         3069.46         3069.45         3069.43         3069.39         3069.34         3069.27         3069.17         3069.07    
          3069.00         3068.95         3068.93         3068.91         3068.90         3068.90         3068.89         3068.87         3068.84         3068.77    
          3068.64         3068.34         3067.70         3066.27         3062.43         3040.00    
  47      3068.98         3068.97         3068.96         3068.95         3068.92         3068.86         3068.76         3068.61         3068.41         3068.18    
          3068.04         3067.96         3067.92         3067.90         3067.89         3067.88         3067.87         3067.86         3067.83         3067.76    
          3067.62         3067.31         3066.64         3065.14         3061.26         3040.00    
  48      3068.01         3068.00         3067.99         3067.97         3067.92         3067.83         3067.67         3067.38         3066.93         3066.39    
          3066.11         3065.99         3065.94         3065.92         3065.91         3065.90         3065.89         3065.88         3065.86         3065.80    
          3065.69         3065.43         3064.87         3063.60         3060.24         3040.00    
  49      3065.61         3065.60         3065.59         3065.55         3065.49         3065.36         3065.10         3064.59         3063.63         3062.14    
          3061.72         3061.59         3061.55         3061.53         3061.52         3061.52         3061.51         3061.51         3061.49         3061.46    
          3061.40         3061.25         3060.93         3060.16         3057.87         3040.00    
  50      3048.47         3048.46         3048.44         3048.41         3048.33         3048.17         3047.82         3047.04         3045.18         3040.00    
          3040.00         3040.00         3040.00         3040.00         3040.00         3040.00         3040.00         3040.00         3040.00         3040.00    
          3040.00         3040.00         3040.00         3040.00         3040.00         3040.00    
1
  HEAD IN LAYER   3 AT END OF TIME STEP   1 IN STRESS PERIOD    1
  ---------------------------------------------------------------------------

                1               2               3               4               5               6               7               8               9              10
               11              12              13              14              15              16              17              18              19              20
               21              22              23              24              25              26
 ................................................................................................................................................................................................................................................................................................................................................................................................................................
   1      3100.00         3100.00         3100.00         3100.00         3100.00         3100.00         3100.00         3100.00         3100.00         3100.00    
          3100.00         3100.00         3100.00         3100.00         3100.00         3100.00         3100.00         3100.00         3100.00         3100.00    
          3100.00         3090.78         3087.08         3085.50         3084.83         3084.57    
   2      3100.00         3091.89         3088.41         3086.95         3086.34         3086.07         3085.96         3085.91         3085.89         3085.88    
          3085.87         3085.87         3085.87         3085.87         3085.87         3085.86         3085.85         3085.81         3085.72         3085.46    
          3084.60         3081.65         3079.71         3078.68         3078.18         3077.99    
   3      3100.00         3087.92         3082.43         3080.07         3079.06         3078.62         3078.43         3078.34         3078.30         3078.28    
          3078.28         3078.27         3078.27         3078.27         3078.26         3078.26         3078.24         3078.19         3078.09         3077.84    
          3077.28         3076.18         3075.28         3074.71         3074.40         3074.27    
   4      3100.00         3084.78         3078.77         3076.27         3075.18         3074.70         3074.49         3074.39         3074.34         3074.32    
          3074.31         3074.31         3074.30         3074.30         3074.30         3074.29         3074.27         3074.23         3074.15         3073.99    
          3073.69         3073.24         3072.83         3072.53         3072.36         3072.28    
   5      3083.03         3078.49         3075.44         3073.81         3073.00         3072.60         3072.41         3072.32         3072.28         3072.26    
          3072.25         3072.24         3072.24         3072.24         3072.23         3072.23         3072.21         3072.18         3072.13         3072.04    
          3071.89         3071.69         3071.50         3071.35         3071.26         3071.22    
   6      3075.88         3074.44         3073.11         3072.23         3071.72         3071.45         3071.31         3071.24         3071.20         3071.18    
          3071.17         3071.17         3071.17         3071.16         3071.16         3071.16         3071.15         3071.13         3071.10         3071.05    
          3070.97         3070.88         3070.79         3070.72         3070.67         3070.65    
   7      3072.74         3072.25         3071.69         3071.26         3070.97         3070.81         3070.71         3070.66         3070.63         3070.62    
          3070.61         3070.61         3070.61         3070.61         3070.60         3070.60         3070.59         3070.58         3070.56         3070.54    
          3070.50         3070.46         3070.42         3070.38         3070.36         3070.35    
   8      3071.31         3071.13         3070.90         3070.69         3070.54         3070.45         3070.39         3070.36         3070.34         3070.33    
          3070.32         3070.32         3070.32         3070.31         3070.31         3070.31         3070.31         3070.30         3070.29         3070.28    
          3070.26         3070.24         3070.22         3070.20         3070.19         3070.18    
   9      3070.64         3070.57         3070.47         3070.37         3070.30         3070.25         3070.21         3070.19         3070.18         3070.17    
          3070.17         3070.17         3070.16         3070.16         3070.16         3070.16         3070.16         3070.16         3070.15         3070.14    
          3070.13         3070.12         3070.11         3070.11         3070.10         3070.10    
  10      3070.31         3070.28         3070.24         3070.20         3070.16         3070.13         3070.11         3070.10         3070.10         3070.09    
          3070.09         3070.09         3070.09         3070.09         3070.08         3070.08         3070.08         3070.08         3070.08         3070.07    
          3070.07         3070.06         3070.06         3070.06         3070.05         3070.05    
  11      3070.15         3070.14         3070.12         3070.10         3070.09         3070.07         3070.06         3070.06         3070.05         3070.05    
          3070.05         3070.05         3070.04         3070.04         3070.04         3070.04         3070.04         3070.04         3070.04         3070.04    
          3070.04         3070.03         3070.03         3070.03         3070.03         3070.03    
  12      3070.08         3070.07         3070.06         3070.05         3070.05         3070.04         3070.03         3070.03         3070.03         3070.03    
          3070.02         3070.02         3070.02         3070.02         3070.02         3070.02         3070.02         3070.02         3070.02         3070.02    
          3070.02         3070.02         3070.02         3070.02         3070.01         3070.01    
  13      3070.04         3070.04         3070.03         3070.03         3070.02         3070.02         3070.02         3070.02         3070.01         3070.01    
          3070.01         3070.01         3070.01         3070.01         3070.01         3070.01         3070.01         3070.01         3070.01         3070.01    
          3070.01         3070.01         3070.01         3070.01         3070.01         3070.01    
  14      3070.02         3070.02         3070.02         3070.01         3070.01         3070.01         3070.01         3070.01         3070.01         3070.01    
          3070.01         3070.01         3070.01         3070.01         3070.01         3070.01         3070.01         3070.01         3070.01         3070.01    
          3070.01         3070.00         3070.00         3070.00         3070.00         3070.00    
  15      3070.01         3070.01         3070.01         3070.01         3070.01         3070.01         3070.01         3070.00         3070.00         3070.00    
          3070.00         3070.00         3070.00         3070.00         3070.00         3070.00         3070.00         3070.00         3070.00         3070.00    
          3070.00         3070.00         3070.00         3070.00         3070.00         3070.00    
  16      3070.00         3070.00         3070.00         3070.00         3070.00         3070.00         3070.00         3070.00         3070.00         3070.00    
          3070.00         3070.00         3070.00         3070.00         3070.00         3070.00         3070.00         3070.00         3070.00         3070.00    
          3070.00         3070.00         3070.00         3070.00         3070.00         3070.00    
  17      3070.00         3070.00         3070.00         3070.00         3070.00         3070.00         3070.00         3070.00         3070.00         3070.00    
          3070.00         3070.00         3070.00         3070.00         3070.00         3070.00         3070.00         3070.00         3070.00         3070.00    
          3070.00         3070.00         3070.00         3070.00         3070.00         3070.00    
  18      3070.00         3070.00         3070.00         3070.00         3070.00         3070.00         3070.00         3070.00         3070.00         3070.00    
          3070.00         3070.00         3070.00         3070.00         3070.00         3070.00         3070.00         3070.00         3070.00         3070.00    
          3070.00         3070.00         3070.00         3070.00         3070.00         3070.00    
  19      3070.00         3070.00         3070.00         3070.00         3070.00         3070.00         3070.00         3070.00         3070.00         3070.00    
          3070.00         3070.00         3070.00         3070.00         3070.00         3070.00         3070.00         3070.00         3070.00         3070.00    
          3070.00         3070.00         3070.00         3070.00         3070.00         3070.00    
  20      3070.00         3070.00         3070.00         3070.00         3070.00         3070.00         3070.00         3070.00         3070.00         3070.00    
          3070.00         3070.00         3070.00         3070.00         3070.00         3070.00         3070.00         3070.00         3070.00         3070.00    
          3070.00         3070.00         3070.00         3070.00         3070.00         3070.00    
  21      3070.00         3070.00         3070.00         3070.00         3070.00         3070.00         3070.00         3070.00         3070.00         3070.00    
          3070.00         3070.00         3070.00         3070.00         3070.00         3070.00         3070.00         3070.00         3070.00         3070.00    
          3070.00         3070.00         3070.00         3070.00         3070.00         3070.00    
  22      3070.00         3070.00         3070.00         3070.00         3070.00         3070.00         3070.00         3070.00         3070.00         3070.00    
          3070.00         3070.00         3070.00         3070.00         3070.00         3070.00         3070.00         3070.00         3070.00         3070.00    
          3070.00         3070.00         3070.00         3070.00         3070.00         3070.00    
  23      3070.00         3070.00         3070.00         3070.00         3070.00         3070.00         3070.00         3070.00         3070.00         3070.00    
          3070.00         3070.00         3070.00         3070.00         3070.00         3070.00         3070.00         3070.00         3070.00         3070.00    
          3070.00         3070.00         3070.00         3070.00         3070.00         3070.00    
  24      3070.00         3070.00         3070.00         3070.00         3070.00         3070.00         3070.00         3070.00         3070.00         3070.00    
          3070.00         3070.00         3070.00         3070.00         3070.00         3070.00         3070.00         3070.00         3070.00         3070.00    
          3070.00         3070.00         3070.00         3070.00         3070.00         3070.00    
  25      3070.00         3070.00         3070.00         3070.00         3070.00         3070.00         3070.00         3070.00         3070.00         3070.00    
          3070.00         3070.00         3070.00         3070.00         3070.00         3070.00         3070.00         3070.00         3070.00         3070.00    
          3070.00         3070.00         3070.00         3070.00         3070.00         3070.00    
  26      3070.00         3070.00         3070.00         3070.00         3070.00         3070.00         3070.00         3070.00         3070.00         3070.00    
          3070.00         3070.00         3070.00         3070.00         3070.00         3070.00         3070.00         3070.00         3070.00         3070.00    
          3070.00         3070.00         3070.00         3070.00         3070.00         3070.00    
  27      3070.00         3070.00         3070.00         3070.00         3070.00         3070.00         3070.00         3070.00         3070.00         3070.00    
          3070.00         3070.00         3070.00         3070.00         3070.00         3070.00         3070.00         3070.00         3070.00         3070.00    
          3070.00         3070.00         3070.00         3070.00         3070.00         3070.00    
  28      3070.00         3070.00         3070.00         3070.00         3070.00         3070.00         3070.00         3070.00         3070.00         3070.00    
          3070.00         3070.00         3070.00         3070.00         3070.00         3070.00         3070.00         3070.00         3070.00         3070.00    
          3070.00         3070.00         3070.00         3070.00         3070.00         3070.00    
  29      3070.00         3070.00         3070.00         3070.00         3070.00         3070.00         3070.00         3070.00         3070.00         3070.00    
          3070.00         3070.00         3070.00         3070.00         3070.00         3070.00         3070.00         3070.00         3070.00         3070.00    
          3070.00         3070.00         3070.00         3070.00         3070.00         3070.00    
  30      3070.00         3070.00         3070.00         3070.00         3070.00         3070.00         3070.00         3070.00         3070.00         3070.00    
          3070.00         3070.00         3070.00         3070.00         3070.00         3070.00         3070.00         3070.00         3070.00         3070.00    
          3070.00         3070.00         3070.00         3070.00         3070.00         3070.00    
  31      3070.00         3070.00         3070.00         3070.00         3070.00         3070.00         3070.00         3070.00         3070.00         3070.00    
          3070.00         3070.00         3070.00         3070.00         3070.00         3070.00         3070.00         3070.00         3070.00         3070.00    
          3070.00         3070.00         3070.00         3070.00         3070.00         3070.00    
  32      3070.00         3070.00         3070.00         3070.00         3070.00         3070.00         3070.00         3070.00         3070.00         3070.00    
          3070.00         3070.00         3070.00         3070.00         3070.00         3070.00         3070.00         3070.00         3070.00         3070.00    
          3070.00         3070.00         3070.00         3070.00         3070.00         3070.00    
  33      3070.00         3070.00         3070.00         3070.00         3070.00         3070.00         3070.00         3070.00         3070.00         3070.00    
          3070.00         3070.00         3070.00         3070.00         3070.00         3070.00         3070.00         3070.00         3070.00         3070.00    
          3070.00         3070.00         3070.00         3070.00         3070.00         3070.00    
  34      3070.00         3070.00         3070.00         3070.00         3070.00         3070.00         3070.00         3070.00         3070.00         3070.00    
          3070.00         3070.00         3070.00         3070.00         3070.00         3070.00         3070.00         3070.00         3070.00         3070.00    
          3070.00         3070.00         3070.00         3070.00         3070.00         3070.00    
  35      3070.00         3070.00         3070.00         3070.00         3070.00         3070.00         3070.00         3070.00         3070.00         3070.00    
          3070.00         3070.00         3070.00         3070.00         3070.00         3070.00         3070.00         3070.00         3070.00         3070.00    
          3070.00         3069.99         3069.99         3069.99         3069.99         3069.99    
  36      3070.00         3070.00         3070.00         3070.00         3070.00         3070.00         3070.00         3070.00         3070.00         3070.00    
          3070.00         3070.00         3070.00         3070.00         3070.00         3070.00         3070.00         3070.00         3069.99         3069.99    
          3069.99         3069.99         3069.99         3069.98         3069.98         3069.98    
  37      3070.00         3070.00         3070.00         3070.00         3070.00         3070.00         3070.00         3070.00         3070.00         3069.99    
          3069.99         3069.99         3069.99         3069.99         3069.99         3069.99         3069.99         3069.99         3069.99         3069.99    
          3069.98         3069.98         3069.98         3069.97         3069.97         3069.96    
  38      3069.99         3069.99         3069.99         3069.99         3069.99         3069.99         3069.99         3069.99         3069.99         3069.99    
          3069.99         3069.99         3069.99         3069.99         3069.99         3069.99         3069.99         3069.98         3069.98         3069.98    
          3069.97         3069.96         3069.95         3069.94         3069.93         3069.93    
  39      3069.99         3069.99         3069.99         3069.99         3069.99         3069.99         3069.98         3069.98         3069.98         3069.98    
          3069.98         3069.98         3069.98         3069.98         3069.98         3069.97         3069.97         3069.97         3069.96         3069.96    
          3069.95         3069.93         3069.91         3069.89         3069.87         3069.85    
  40      3069.98         3069.98         3069.98         3069.98         3069.97         3069.97         3069.97         3069.97         3069.97         3069.96    
          3069.96         3069.96         3069.96         3069.96         3069.95         3069.95         3069.95         3069.94         3069.94         3069.92    
          3069.90         3069.87         3069.83         3069.78         3069.73         3069.70    
  41      3069.96         3069.96         3069.96         3069.95         3069.95         3069.95         3069.95         3069.94         3069.94         3069.93    
          3069.93         3069.92         3069.92         3069.92         3069.91         3069.91         3069.91         3069.90         3069.88         3069.86    
          3069.82         3069.76         3069.68         3069.58         3069.47         3069.39    
  42      3069.92         3069.92         3069.92         3069.91         3069.91         3069.90         3069.90         3069.89         3069.88         3069.87    
          3069.86         3069.85         3069.84         3069.84         3069.84         3069.83         3069.82         3069.81         3069.79         3069.75    
          3069.68         3069.58         3069.41         3069.19         3068.93         3068.74    
  43      3069.84         3069.84         3069.84         3069.84         3069.83         3069.82         3069.80         3069.78         3069.76         3069.74    
          3069.72         3069.71         3069.70         3069.69         3069.68         3069.68         3069.67         3069.65         3069.62         3069.56    
          3069.45         3069.26         3068.94         3068.47         3067.86         3067.34    
  44      3069.70         3069.70         3069.70         3069.69         3069.67         3069.65         3069.62         3069.59         3069.54         3069.50    
          3069.46         3069.44         3069.42         3069.40         3069.40         3069.39         3069.37         3069.35         3069.30         3069.22    
          3069.05         3068.74         3068.17         3067.20         3065.77         3064.25    
  45      3069.43         3069.43         3069.42         3069.41         3069.38         3069.35         3069.29         3069.21         3069.12         3069.03    
          3068.95         3068.90         3068.87         3068.85         3068.84         3068.83         3068.81         3068.78         3068.72         3068.61    
          3068.38         3067.91         3066.98         3065.17         3061.88         3057.12    
  46      3068.91         3068.91         3068.90         3068.87         3068.83         3068.77         3068.66         3068.51         3068.31         3068.11    
          3067.96         3067.87         3067.81         3067.78         3067.77         3067.75         3067.74         3067.70         3067.64         3067.51    
          3067.22         3066.62         3065.33         3062.48         3055.93         3040.00    
  47      3067.92         3067.91         3067.89         3067.86         3067.80         3067.68         3067.49         3067.18         3066.76         3066.31    
          3066.01         3065.85         3065.77         3065.73         3065.71         3065.69         3065.67         3065.64         3065.58         3065.45    
          3065.16         3064.54         3063.17         3060.18         3053.61         3040.00    
  48      3066.01         3066.00         3065.98         3065.93         3065.84         3065.65         3065.32         3064.73         3063.82         3062.72    
          3062.16         3061.91         3061.81         3061.76         3061.74         3061.73         3061.71         3061.69         3061.64         3061.53    
          3061.30         3060.78         3059.64         3057.12         3051.58         3040.00    
  49      3062.38         3062.36         3062.33         3062.27         3062.14         3061.88         3061.35         3060.30         3058.36         3055.40    
          3054.55         3054.28         3054.19         3054.15         3054.14         3054.13         3054.12         3054.11         3054.08         3054.02    
          3053.89         3053.59         3052.93         3051.43         3047.96         3040.00    
  50      3055.84         3055.83         3055.80         3055.72         3055.57         3055.24         3054.53         3052.94         3049.23         3040.00    
          3040.00         3040.00         3040.00         3040.00         3040.00         3040.00         3040.00         3040.00         3040.00         3040.00    
          3040.00         3040.00         3040.00         3040.00         3040.00         3040.00    

 HEAD WILL BE SAVED ON UNIT 1025 AT END OF TIME STEP    1, STRESS PERIOD    1


  VOLUME BUDGET FOR ENTIRE MODEL AT END OF TIME STEP    1, STRESS PERIOD   1
  ---------------------------------------------------------------------------------------------------

     CUMULATIVE VOLUME      L**3       RATES FOR THIS TIME STEP      L**3/T          PACKAGE NAME    
     ------------------                 ------------------------                     ----------------

           IN:                                      IN:
           ---                                      ---
              STO-SS =       45732.6864                STO-SS =           5.2931     STORAGE                          
                 CHD =       33320.0451                   CHD =           3.8565     CHD-1                            

            TOTAL IN =       79052.7315              TOTAL IN =           9.1496

          OUT:                                     OUT:
          ----                                     ----
              STO-SS =       49926.6161                STO-SS =           5.7785     STORAGE                          
                 CHD =       29126.1155                   CHD =           3.3711     CHD-1                            

           TOTAL OUT =       79052.7315             TOTAL OUT =           9.1496

            IN - OUT =       5.9247E-06              IN - OUT =       6.8573E-10

 PERCENT DISCREPANCY =           0.00     PERCENT DISCREPANCY =           0.00




         TIME SUMMARY AT END OF TIME STEP    1 IN STRESS PERIOD    1
                    SECONDS     MINUTES      HOURS       DAYS        YEARS
                    -----------------------------------------------------------
   TIME STEP LENGTH  8640.0      144.00      2.4000     0.10000     2.73785E-04
 STRESS PERIOD TIME  8640.0      144.00      2.4000     0.10000     2.73785E-04
         TOTAL TIME  8640.0      144.00      2.4000     0.10000     2.73785E-04


end timestep


start timestep kper="2" kstp="1" mode="normal"


 END OF FILE DETECTED IN OUTPUT CONTROL.
 CURRENT OUTPUT CONTROL SETTINGS WILL BE 
 REPEATED UNTIL THE END OF THE SIMULATION.

 OUTPUT CONTROL FOR STRESS PERIOD 2 IS REPEATED USING SETTINGS FROM A PREVIOUS STRESS PERIOD.

end timestep


start timestep kper="2" kstp="2" mode="normal"


end timestep


start timestep kper="2" kstp="3" mode="normal"


end timestep


start timestep kper="2" kstp="4" mode="normal"


end timestep


start timestep kper="2" kstp="5" mode="normal"


end timestep


start timestep kper="2" kstp="6" mode="normal"


end timestep


start timestep kper="2" kstp="7" mode="normal"


end timestep


start timestep kper="2" kstp="8" mode="normal"


end timestep


start timestep kper="2" kstp="9" mode="normal"


end timestep


start timestep kper="2" kstp="10" mode="normal"


end timestep


start timestep kper="2" kstp="11" mode="normal"


end timestep


start timestep kper="2" kstp="12" mode="normal"


end timestep


start timestep kper="2" kstp="13" mode="normal"


end timestep


start timestep kper="2" kstp="14" mode="normal"


end timestep


start timestep kper="2" kstp="15" mode="normal"


end timestep


start timestep kper="2" kstp="16" mode="normal"


end timestep


start timestep kper="2" kstp="17" mode="normal"


end timestep


start timestep kper="2" kstp="18" mode="normal"


end timestep


start timestep kper="2" kstp="19" mode="normal"


end timestep


start timestep kper="2" kstp="20" mode="normal"


end timestep


start timestep kper="2" kstp="21" mode="normal"


end timestep


start timestep kper="2" kstp="22" mode="normal"


end timestep


start timestep kper="2" kstp="23" mode="normal"


end timestep


start timestep kper="2" kstp="24" mode="normal"


end timestep


start timestep kper="2" kstp="25" mode="normal"


end timestep


start timestep kper="2" kstp="26" mode="normal"


end timestep


start timestep kper="2" kstp="27" mode="normal"


end timestep


start timestep kper="2" kstp="28" mode="normal"


end timestep


start timestep kper="2" kstp="29" mode="normal"


end timestep


start timestep kper="2" kstp="30" mode="normal"


end timestep


start timestep kper="2" kstp="31" mode="normal"


end timestep


start timestep kper="2" kstp="32" mode="normal"


end timestep


start timestep kper="2" kstp="33" mode="normal"


end timestep


start timestep kper="2" kstp="34" mode="normal"


end timestep


start timestep kper="2" kstp="35" mode="normal"


end timestep


start timestep kper="2" kstp="36" mode="normal"


end timestep


start timestep kper="2" kstp="37" mode="normal"


end timestep


start timestep kper="2" kstp="38" mode="normal"


end timestep


start timestep kper="2" kstp="39" mode="normal"


end timestep


start timestep kper="2" kstp="40" mode="normal"


end timestep


start timestep kper="2" kstp="41" mode="normal"


end timestep


[...]
          3089.17         3089.05         3088.94         3088.84         3088.78         3088.74    
  10      3089.84         3089.81         3089.75         3089.67         3089.58         3089.49         3089.39         3089.30         3089.21         3089.12    
          3089.03         3088.94         3088.85         3088.76         3088.67         3088.57         3088.47         3088.37         3088.26         3088.15    
          3088.04         3087.93         3087.84         3087.77         3087.72         3087.69    
  11      3088.52         3088.50         3088.45         3088.39         3088.32         3088.24         3088.15         3088.07         3087.98         3087.90    
          3087.82         3087.73         3087.65         3087.56         3087.47         3087.38         3087.28         3087.19         3087.09         3086.99    
          3086.90         3086.81         3086.74         3086.68         3086.63         3086.61    
  12      3087.23         3087.21         3087.17         3087.12         3087.06         3086.99         3086.92         3086.84         3086.76         3086.69    
          3086.61         3086.52         3086.44         3086.36         3086.27         3086.19         3086.10         3086.01         3085.93         3085.84    
          3085.76         3085.69         3085.62         3085.57         3085.54         3085.52    
  13      3085.95         3085.94         3085.91         3085.87         3085.82         3085.76         3085.69         3085.62         3085.55         3085.48    
          3085.40         3085.32         3085.25         3085.17         3085.09         3085.01         3084.92         3084.84         3084.76         3084.69    
          3084.62         3084.55         3084.50         3084.46         3084.43         3084.41    
  14      3084.70         3084.69         3084.66         3084.63         3084.58         3084.53         3084.47         3084.41         3084.34         3084.27    
          3084.20         3084.13         3084.05         3083.98         3083.90         3083.83         3083.75         3083.68         3083.61         3083.54    
          3083.47         3083.42         3083.37         3083.33         3083.31         3083.29    
  15      3083.46         3083.45         3083.43         3083.40         3083.36         3083.31         3083.26         3083.20         3083.14         3083.07    
          3083.01         3082.94         3082.87         3082.80         3082.72         3082.65         3082.58         3082.51         3082.45         3082.39    
          3082.33         3082.28         3082.24         3082.20         3082.18         3082.17    
  16      3082.24         3082.23         3082.21         3082.19         3082.15         3082.11         3082.06         3082.00         3081.94         3081.88    
          3081.82         3081.75         3081.69         3081.62         3081.55         3081.48         3081.42         3081.35         3081.29         3081.23    
          3081.18         3081.14         3081.10         3081.07         3081.05         3081.04    
  17      3081.03         3081.03         3081.01         3080.98         3080.95         3080.91         3080.86         3080.81         3080.76         3080.70    
          3080.64         3080.57         3080.51         3080.45         3080.38         3080.32         3080.25         3080.19         3080.14         3080.08    
          3080.03         3079.99         3079.96         3079.93         3079.91         3079.90    
  18      3079.84         3079.83         3079.81         3079.79         3079.76         3079.72         3079.68         3079.63         3079.58         3079.52    
          3079.46         3079.40         3079.34         3079.28         3079.21         3079.15         3079.09         3079.03         3078.98         3078.93    
          3078.88         3078.85         3078.81         3078.79         3078.77         3078.76    
  19      3078.65         3078.65         3078.63         3078.61         3078.58         3078.54         3078.50         3078.45         3078.40         3078.35    
          3078.29         3078.23         3078.17         3078.11         3078.05         3077.99         3077.93         3077.88         3077.82         3077.78    
          3077.73         3077.70         3077.67         3077.64         3077.63         3077.62    
  20      3077.48         3077.47         3077.46         3077.44         3077.41         3077.37         3077.33         3077.29         3077.24         3077.18    
          3077.13         3077.07         3077.01         3076.95         3076.89         3076.83         3076.77         3076.72         3076.67         3076.62    
          3076.58         3076.55         3076.52         3076.49         3076.48         3076.47    
  21      3076.32         3076.31         3076.30         3076.27         3076.25         3076.21         3076.17         3076.13         3076.08         3076.02    
          3075.97         3075.91         3075.85         3075.79         3075.73         3075.67         3075.62         3075.56         3075.51         3075.47    
          3075.43         3075.39         3075.36         3075.34         3075.33         3075.32    
  22      3075.16         3075.16         3075.14         3075.12         3075.09         3075.06         3075.02         3074.97         3074.92         3074.87    
          3074.81         3074.75         3074.69         3074.64         3074.58         3074.52         3074.46         3074.41         3074.36         3074.31    
          3074.27         3074.24         3074.21         3074.19         3074.17         3074.16    
  23      3074.02         3074.01         3074.00         3073.97         3073.95         3073.91         3073.87         3073.82         3073.77         3073.72    
          3073.66         3073.60         3073.54         3073.48         3073.42         3073.36         3073.30         3073.25         3073.20         3073.15    
          3073.11         3073.08         3073.05         3073.03         3073.01         3073.01    
  24      3072.88         3072.87         3072.86         3072.84         3072.81         3072.77         3072.73         3072.68         3072.63         3072.57    
          3072.51         3072.45         3072.39         3072.33         3072.27         3072.21         3072.15         3072.09         3072.04         3071.99    
          3071.95         3071.92         3071.89         3071.86         3071.85         3071.84    
  25      3071.75         3071.75         3071.73         3071.71         3071.68         3071.64         3071.59         3071.54         3071.49         3071.43    
          3071.37         3071.31         3071.24         3071.18         3071.11         3071.05         3070.99         3070.93         3070.88         3070.83    
          3070.79         3070.75         3070.72         3070.70         3070.68         3070.67    
  26      3070.63         3070.63         3070.61         3070.58         3070.55         3070.51         3070.47         3070.41         3070.36         3070.30    
          3070.23         3070.16         3070.10         3070.03         3069.96         3069.89         3069.83         3069.77         3069.71         3069.66    
          3069.62         3069.58         3069.55         3069.52         3069.51         3069.50    
  27      3069.52         3069.51         3069.50         3069.47         3069.43         3069.39         3069.34         3069.29         3069.23         3069.16    
          3069.09         3069.02         3068.95         3068.88         3068.81         3068.74         3068.67         3068.60         3068.55         3068.49    
          3068.44         3068.40         3068.37         3068.34         3068.33         3068.32    
  28      3068.42         3068.41         3068.39         3068.36         3068.32         3068.28         3068.22         3068.17         3068.10         3068.03    
          3067.96         3067.88         3067.80         3067.73         3067.65         3067.58         3067.50         3067.44         3067.37         3067.31    
          3067.26         3067.22         3067.18         3067.16         3067.14         3067.13    
  29      3067.32         3067.31         3067.29         3067.26         3067.22         3067.17         3067.11         3067.05         3066.98         3066.90    
          3066.82         3066.74         3066.66         3066.57         3066.49         3066.41         3066.33         3066.26         3066.19         3066.13    
          3066.08         3066.03         3065.99         3065.96         3065.94         3065.93    
  30      3066.24         3066.22         3066.20         3066.17         3066.12         3066.07         3066.01         3065.94         3065.86         3065.78    
          3065.69         3065.60         3065.51         3065.42         3065.33         3065.24         3065.16         3065.08         3065.01         3064.94    
          3064.88         3064.83         3064.79         3064.75         3064.73         3064.72    
  31      3065.16         3065.14         3065.12         3065.08         3065.03         3064.97         3064.90         3064.83         3064.74         3064.65    
          3064.56         3064.46         3064.36         3064.26         3064.17         3064.07         3063.98         3063.90         3063.81         3063.74    
          3063.68         3063.62         3063.57         3063.54         3063.51         3063.50    
  32      3064.09         3064.07         3064.05         3064.00         3063.95         3063.88         3063.81         3063.72         3063.63         3063.53    
          3063.43         3063.32         3063.21         3063.10         3063.00         3062.90         3062.80         3062.70         3062.61         3062.53    
          3062.46         3062.40         3062.35         3062.31         3062.28         3062.27    
  33      3063.03         3063.01         3062.98         3062.94         3062.88         3062.80         3062.72         3062.62         3062.52         3062.41    
          3062.29         3062.18         3062.06         3061.94         3061.83         3061.71         3061.60         3061.50         3061.40         3061.32    
          3061.24         3061.17         3061.11         3061.07         3061.04         3061.02    
  34      3061.98         3061.97         3061.93         3061.88         3061.81         3061.73         3061.63         3061.53         3061.41         3061.29    
          3061.16         3061.03         3060.90         3060.77         3060.65         3060.52         3060.40         3060.29         3060.18         3060.09    
          3060.00         3059.92         3059.86         3059.81         3059.78         3059.76    
  35      3060.95         3060.93         3060.89         3060.83         3060.75         3060.66         3060.55         3060.43         3060.31         3060.17    
          3060.03         3059.89         3059.74         3059.60         3059.46         3059.33         3059.19         3059.07         3058.95         3058.84    
          3058.75         3058.66         3058.59         3058.54         3058.50         3058.48    
  36      3059.93         3059.91         3059.86         3059.80         3059.71         3059.60         3059.48         3059.35         3059.20         3059.05    
          3058.90         3058.74         3058.58         3058.42         3058.27         3058.12         3057.98         3057.84         3057.71         3057.59    
          3057.48         3057.39         3057.30         3057.24         3057.20         3057.18    
  37      3058.93         3058.91         3058.85         3058.78         3058.68         3058.56         3058.42         3058.27         3058.10         3057.93    
          3057.76         3057.58         3057.41         3057.24         3057.07         3056.91         3056.75         3056.60         3056.46         3056.32    
          3056.20         3056.09         3056.00         3055.93         3055.87         3055.85    
  38      3057.96         3057.92         3057.86         3057.77         3057.66         3057.52         3057.36         3057.19         3057.01         3056.82    
          3056.62         3056.43         3056.23         3056.04         3055.86         3055.68         3055.51         3055.35         3055.19         3055.04    
          3054.90         3054.78         3054.67         3054.58         3054.52         3054.49    
  39      3057.00         3056.97         3056.90         3056.79         3056.66         3056.50         3056.32         3056.12         3055.91         3055.70    
          3055.48         3055.26         3055.05         3054.84         3054.64         3054.45         3054.26         3054.08         3053.91         3053.75    
          3053.59         3053.45         3053.32         3053.22         3053.14         3053.10    
  40      3056.08         3056.03         3055.95         3055.83         3055.68         3055.50         3055.29         3055.06         3054.82         3054.57    
          3054.33         3054.09         3053.85         3053.63         3053.41         3053.20         3053.00         3052.81         3052.62         3052.44    
          3052.26         3052.10         3051.94         3051.82         3051.72         3051.67    
  41      3055.19         3055.14         3055.04         3054.90         3054.72         3054.51         3054.27         3054.00         3053.73         3053.45    
          3053.17         3052.90         3052.65         3052.40         3052.17         3051.95         3051.73         3051.53         3051.32         3051.12    
          3050.92         3050.73         3050.54         3050.38         3050.25         3050.18    
  42      3054.34         3054.28         3054.17         3054.01         3053.80         3053.54         3053.26         3052.95         3052.63         3052.31    
          3052.00         3051.70         3051.42         3051.16         3050.91         3050.68         3050.46         3050.24         3050.02         3049.80    
          3049.58         3049.35         3049.12         3048.91         3048.73         3048.62    
  43      3053.54         3053.47         3053.34         3053.15         3052.90         3052.61         3052.27         3051.91         3051.54         3051.17    
          3050.81         3050.48         3050.18         3049.90         3049.64         3049.40         3049.17         3048.95         3048.72         3048.48    
          3048.24         3047.97         3047.68         3047.39         3047.13         3046.95    
  44      3052.80         3052.72         3052.57         3052.35         3052.05         3051.70         3051.30         3050.87         3050.43         3050.00    
          3049.59         3049.23         3048.90         3048.61         3048.35         3048.11         3047.88         3047.65         3047.42         3047.18    
          3046.91         3046.60         3046.25         3045.85         3045.43         3045.10    
  45      3052.13         3052.04         3051.86         3051.60         3051.26         3050.84         3050.36         3049.84         3049.31         3048.80    
          3048.33         3047.93         3047.58         3047.29         3047.03         3046.80         3046.58         3046.36         3046.14         3045.89    
          3045.61         3045.28         3044.86         3044.33         3043.65         3042.92    
  46      3051.54         3051.44         3051.24         3050.93         3050.53         3050.03         3049.45         3048.82         3048.16         3047.54    
          3047.01         3046.57         3046.22         3045.93         3045.68         3045.47         3045.27         3045.08         3044.87         3044.64    
          3044.38         3044.04         3043.59         3042.95         3041.93         3040.00    
  47      3051.05         3050.93         3050.70         3050.35         3049.89         3049.30         3048.60         3047.81         3046.98         3046.20    
          3045.59         3045.13         3044.78         3044.52         3044.31         3044.12         3043.96         3043.80         3043.63         3043.44    
          3043.20         3042.91         3042.51         3041.94         3041.13         3040.00    
  48      3050.66         3050.54         3050.28         3049.89         3049.36         3048.67         3047.83         3046.84         3045.74         3044.70    
          3044.00         3043.56         3043.27         3043.06         3042.90         3042.76         3042.64         3042.53         3042.40         3042.27    
          3042.10         3041.88         3041.58         3041.19         3040.66         3040.00    
  49      3050.40         3050.26         3049.99         3049.56         3048.97         3048.20         3047.21         3045.97         3044.45         3042.83    
          3042.17         3041.85         3041.67         3041.55         3041.46         3041.39         3041.32         3041.26         3041.20         3041.12    
          3041.04         3040.92         3040.77         3040.57         3040.31         3040.00    
  50      3050.26         3050.12         3049.84         3049.39         3048.77         3047.94         3046.84         3045.36         3043.27         3040.00    
          3040.00         3040.00         3040.00         3040.00         3040.00         3040.00         3040.00         3040.00         3040.00         3040.00    
          3040.00         3040.00         3040.00         3040.00         3040.00         3040.00    

 HEAD WILL BE SAVED ON UNIT 1025 AT END OF TIME STEP  364, STRESS PERIOD    2


  VOLUME BUDGET FOR ENTIRE MODEL AT END OF TIME STEP  364, STRESS PERIOD   2
  ---------------------------------------------------------------------------------------------------

     CUMULATIVE VOLUME      L**3       RATES FOR THIS TIME STEP      L**3/T          PACKAGE NAME    
     ------------------                 ------------------------                     ----------------

           IN:                                      IN:
           ---                                      ---
              STO-SS =     6241237.8486                STO-SS =       1.2410E-02     STORAGE                          
                 CHD =    10827227.1901                   CHD =           0.2117     CHD-1                            

            TOTAL IN =    17068465.0387              TOTAL IN =           0.2241

          OUT:                                     OUT:
          ----                                     ----
              STO-SS =     6962147.0335                STO-SS =       1.3703E-02     STORAGE                          
                 CHD =    10106317.9900                   CHD =           0.2104     CHD-1                            

           TOTAL OUT =    17068465.0235             TOTAL OUT =           0.2241

            IN - OUT =       1.5219E-02              IN - OUT =       4.7501E-10

 PERCENT DISCREPANCY =           0.00     PERCENT DISCREPANCY =           0.00




         TIME SUMMARY AT END OF TIME STEP  364 IN STRESS PERIOD    2
                    SECONDS     MINUTES      HOURS       DAYS        YEARS
                    -----------------------------------------------------------
   TIME STEP LENGTH  86400.      1440.0      24.000      1.0000     2.73785E-03
 STRESS PERIOD TIME 3.14496E+07 5.24160E+05  8736.0      364.00     0.99658    
         TOTAL TIME 3.14582E+07 5.24304E+05  8738.4      364.10     0.99685    


end timestep

