                                   MODFLOW 6
                U.S. GEOLOGICAL SURVEY MODULAR HYDROLOGIC MODEL
                             TRANSPORT MODEL (GWT)
                            VERSION 6.6.1 02/10/2025

   MODFLOW 6 compiled Feb 14 2025 13:39:18 with Intel(R) Fortran Intel(R) 64
   Compiler Classic for applications running on Intel(R) 64, Version 2021.7.0
                             Build 20220726_000000

This software has been approved for release by the U.S. Geological 
Survey (USGS). Although the software has been subjected to rigorous 
review, the USGS reserves the right to update the software as needed 
pursuant to further analysis and review. No warranty, expressed or 
implied, is made by the USGS or the U.S. Government as to the 
functionality of the software and related material nor shall the 
fact of release constitute any such warranty. Furthermore, the 
software is released on condition that neither the USGS nor the U.S. 
Government shall be held liable for any damages resulting from its 
authorized or unauthorized use. Also refer to the USGS Water 
Resources Software User Rights Notice for complete use, copyright, 
and distribution information.


As a work of the United States Government, this USGS product is 
in the public domain within the United States. You can copy, 
modify, distribute, and perform the work, even for commercial 
purposes, all without asking permission. Additionally, USGS 
waives copyright and related rights in the work worldwide 
through CC0 1.0 Universal Public Domain Dedication 
(https://creativecommons.org/publicdomain/zero/1.0/).

The following GNU Lesser General Public License (LGPL) libraries
are used in this USGS product:

    SPARSKIT version 2.0
      ilut, luson, and qsplit 
      (https://www-users.cse.umn.edu/~saad/software/SPARSKIT/)

    RCM - Reverse Cuthill McKee Ordering
      (https://people.math.sc.edu/Burkardt/f_src/rcm/rcm.html)

    BLAS - Basic Linear Algebra Subprograms Level 1
      (https://people.math.sc.edu/Burkardt/f_src/blas1_d/blas1_d.html)

    SPARSEKIT - Sparse Matrix Utility Package
      amux, dperm, dvperm, rperm, and cperm
      (https://people.sc.fsu.edu/~jburkardt/f77_src/sparsekit/sparsekit.html)

The following BSD-3 License libraries are used in this USGS product:

    Modern Fortran DAG Library
      Copyright (c) 2018, Jacob Williams
      All rights reserved.
      (https://github.com/jacobwilliams/daglib)

MODFLOW 6 compiler options: -Ilinux/obj_mf6 -O2 -no-heap-arrays -fpe0
-traceback -Qdiag-disable:7416 -Qdiag-disable:7025 -Qdiag-disable:5268 -fpp
-module linux/mod_mf6/ -c -o linux/obj_mf6/compilerversion.o

System command used to initiate simulation:
/home/sensei/mfplayground/modflow-python/mf6.4.1_linux/bin/mf6

MODFLOW was compiled using uniform precision.

Real Variables
  KIND: 8
  TINY (smallest non-zero value):    2.225074-308
  HUGE (largest value):    1.797693+308
  PRECISION: 15
  SIZE IN BITS: 64

Integer Variables
  KIND: 4
  HUGE (largest value): 2147483647
  SIZE IN BITS: 32

Long Integer Variables
  KIND: 8
  HUGE (largest value): 9223372036854775807
  SIZE IN BITS: 64

Logical Variables
  KIND: 4
  SIZE IN BITS: 32
 
 NAMEFILE OPTIONS:
    FLOWS WILL BE SAVED TO BUDGET FILE SPECIFIED IN OUTPUT CONTROL
 END NAMEFILE OPTIONS:

 DIS -- STRUCTURED GRID DISCRETIZATION PACKAGE, VERSION 2 : 3/27/2014 - INPUT READ FROM MEMPATH: __INPUT__/GWT-ES7/DIS                             


 DSP-- DISPERSION PACKAGE, VERSION 1, 1/24/2018 INPUT READ FROM MEMPATH: __INPUT__/GWT-ES7/DSP                             


 Setting Discretization Options
    Model length unit [0=UND, 1=FEET, 2=METERS, 3=CENTIMETERS] set as 2
 End Setting Discretization Options

 Setting Discretization Dimensions
    NLAY = 3
    NROW = 50
    NCOL = 26
 End Setting Discretization Dimensions

 Setting Discretization Griddata
    DELR set from input file
    DELC set from input file
    TOP set from input file
    BOTM set from input file
    IDOMAIN set from input file
 End Setting Discretization Griddata


 FMI -- FLOW MODEL INTERFACE,' VERSION 2, 8/17/2023
  FLOWS PROVIDED BY A GWF MODEL IN THIS SIMULATION

 ADV-- ADVECTION PACKAGE, VERSION 1, 8/25/2017 INPUT READ FROM UNIT 1014


 # File generated by Flopy version 3.9.2 on 11/20/2025 at 22:18:52.
 PROCESSING ADVECTION OPTIONS
    ADVECTION WEIGHTING SCHEME HAS BEEN SET TO: TVD
 END OF ADVECTION OPTIONS
 Setting DSP Options
    XT3D formulation [0=INACTIVE, 1=ACTIVE, 3=ACTIVE RHS] set to: 1
 End Setting DSP Options

 Setting DSP Griddata
    ALH set from input file
    ATH1 set from input file
 End Setting DSP Griddata

    STRT set from input file

 MST -- MOBILE STORAGE AND TRANSFER PACKAGE, VERSION 1, 7/29/2020 INPUT READ FROM UNIT 1013


 # File generated by Flopy version 3.9.2 on 11/20/2025 at 22:18:52.
 PROCESSING MOBILE STORAGE AND TRANSFER OPTIONS
 END OF MOBILE STORAGE AND TRANSFER OPTIONS
 PROCESSING GRIDDATA
 END PROCESSING GRIDDATA

 SSM -- SOURCE-SINK MIXING PACKAGE, VERSION 1, 8/25/2017 INPUT READ FROM UNIT 1016


 # File generated by Flopy version 3.9.2 on 11/20/2025 at 22:18:52.
 PROCESSING SSM OPTIONS
    SSM FLOW INFORMATION WILL BE PRINTED TO LISTING FILE WHENEVER ICBCFL IS NOT ZERO.
 END OF SSM OPTIONS
 PROCESSING SOURCES
 AUX SOURCE DETECTED.
    USING AUX COLUMN 1 IN PACKAGE CHD-1
 END PROCESSING SOURCES
 OPTIONAL FILEINPUT BLOCK NOT FOUND.  CONTINUING.
      THE LAST TIME STEP WILL BE PRINTED
      THE LAST TIME STEP WILL BE PRINTED
 # File generated by Flopy version 3.9.2 on 11/20/2025 at 22:18:52.

 PROCESSING OC OPTIONS

    BUDGET INFORMATION WILL BE WRITTEN TO:
      UNIT NUMBER: 1026
      FILE NAME: gwt-es7.cbc

 OPENED gwt-es7.cbc
 FILE TYPE:DATA(BINARY)   UNIT 1026   STATUS:REPLACE             
 FORMAT:UNFORMATTED            ACCESS:STREAM              
 ACTION:READWRITE           

    CONCENTRATION INFORMATION WILL BE WRITTEN TO:
      UNIT NUMBER: 1027
      FILE NAME: gwt-es7.ucn

 OPENED gwt-es7.ucn
 FILE TYPE:DATA(BINARY)   UNIT 1027   STATUS:REPLACE             
 FORMAT:UNFORMATTED            ACCESS:STREAM              
 ACTION:READWRITE           

 END OF OC OPTIONS

start timestep kper="1" kstp="1" mode="normal"


 BEGIN READING OUTPUT CONTROL FOR STRESS PERIOD 1
      THE LAST TIME STEP WILL BE SAVED
      THE LAST TIME STEP WILL BE SAVED
      THE LAST TIME STEP WILL BE PRINTED
      THE LAST TIME STEP WILL BE PRINTED

 END READING OUTPUT CONTROL FOR STRESS PERIOD 1

 XT3D is active.


 UBDSV1 SAVING  STORAGE-AQUEOUS ON UNIT   1026 AT TIME STEP      1, STRESS PERIOD      1
 UBDSV1 SAVING     FLOW-JA-FACE ON UNIT   1026 AT TIME STEP      1, STRESS PERIOD      1
 UBDSV06 SAVING  SOURCE-SINK MIX IN MODEL GWT-ES7          PACKAGE GWT-ES7         CONNECTED TO MODEL GWT-ES7          PACKAGE SSM              ON UNIT   1026 AT TIME STEP      1, STRESS PERIOD      1

 SSM PACKAGE (SSM) FLOW RATES   PERIOD      1   STEP        1
 ------------------------------------------------------------------------------------------------
   NUMBER   CELLID                   BOUND Q        SSM CONC          RATE         PACKAGE NAME  
 ------------------------------------------------------------------------------------------------
     1      (1,1,1)               0.0000000       0.0000000       0.0000000           CHD-1      
     2      (1,1,2)               0.12730444      0.0000000       0.0000000           CHD-1      
     3      (1,1,3)               0.13338959      0.0000000       0.0000000           CHD-1      
     4      (1,1,4)               0.13372092      0.0000000       0.0000000           CHD-1      
     5      (1,1,5)               0.13375560      0.0000000       0.0000000           CHD-1      
     6      (1,1,6)               0.13376539      0.0000000       0.0000000           CHD-1      
     7      (1,1,7)               0.13376938      0.0000000       0.0000000           CHD-1      
     8      (1,1,8)               0.13377111      0.0000000       0.0000000           CHD-1      
     9      (1,1,9)               0.13377188      0.0000000       0.0000000           CHD-1      
     10     (1,1,10)              0.13377223      0.0000000       0.0000000           CHD-1      
     11     (1,1,11)              0.13377239      0.0000000       0.0000000           CHD-1      
     12     (1,1,12)              0.13377246      0.0000000       0.0000000           CHD-1      
     13     (1,1,13)              0.13377251      0.0000000       0.0000000           CHD-1      
     14     (1,1,14)              0.13377256      0.0000000       0.0000000           CHD-1      
     15     (1,1,15)              0.13377264      0.0000000       0.0000000           CHD-1      
     16     (1,1,16)              0.13377282      0.0000000       0.0000000           CHD-1      
     17     (1,1,17)              0.13377327      0.0000000       0.0000000           CHD-1      
     18     (1,1,18)              0.13377443      0.0000000       0.0000000           CHD-1      
     19     (1,1,19)              0.13377763      0.0000000       0.0000000           CHD-1      
     20     (1,1,20)              0.13378756      0.0000000       0.0000000           CHD-1      
     21     (1,1,21)              0.14070440      0.0000000       0.0000000           CHD-1      
     22     (1,2,1)               0.12730444      0.0000000       0.0000000           CHD-1      
     23     (1,3,1)               0.13341921      0.0000000       0.0000000           CHD-1      
     24     (1,4,1)               0.26824459      0.0000000       0.0000000           CHD-1      
     25     (1,46,26)            -0.26828776     -9.02239588-192  0.0000000           CHD-1      
     26     (1,47,26)            -0.13375324     -5.02481151-195  0.0000000           CHD-1      
     27     (1,48,26)            -0.13338977     -2.89366617-198  0.0000000           CHD-1      
     28     (1,49,26)            -0.12729872     -8.71588731-201  0.0000000           CHD-1      
     29     (1,50,10)            -0.14070472      1.53100948-189 -2.15420262-190      CHD-1      
     30     (1,50,11)            -0.13378759      4.49832742-189 -6.01820365-190      CHD-1      
     31     (1,50,12)            -0.13377763      1.05203173-188 -1.40738315-189      CHD-1      
     32     (1,50,13)            -0.13377441      2.13936137-188 -2.86191812-189      CHD-1      
     33     (1,50,14)            -0.13377323     -2.06919477-189  0.0000000           CHD-1      
     34     (1,50,15)            -0.13377274      9.98414050-191 -1.33560583-191      CHD-1      
     35     (1,50,16)            -0.13377246     -4.09945453-192  0.0000000           CHD-1      
     36     (1,50,17)            -0.13377219      1.72828424-193 -2.31196359-194      CHD-1      
     37     (1,50,18)            -0.13377171     -9.17093682-195  0.0000000           CHD-1      
     38     (1,50,19)            -0.13377074      6.29412149-196 -8.41969272-197      CHD-1      
     39     (1,50,20)            -0.13376863     -6.30550196-197  0.0000000           CHD-1      
     40     (1,50,21)            -0.13376397      9.03093594-198 -1.20801383-198      CHD-1      
     41     (1,50,22)            -0.13375306     -1.99414331-198  0.0000000           CHD-1      
     42     (1,50,23)            -0.13371678      6.10641421-199 -8.16530075-200      CHD-1      
     43     (1,50,24)            -0.13338385     -2.03364742-199  0.0000000           CHD-1      
     44     (1,50,25)            -0.12729872      1.35619796-200 -1.72642269-201      CHD-1      
     45     (1,50,26)             0.0000000       0.0000000       0.0000000           CHD-1      
     46     (2,1,1)               0.0000000       0.0000000       0.0000000           CHD-1      
     47     (2,1,2)               7.23722472E-05  0.0000000       0.0000000           CHD-1      
     48     (2,1,3)               8.16598531E-05  0.0000000       0.0000000           CHD-1      
     49     (2,1,4)               8.46645412E-05  0.0000000       0.0000000           CHD-1      
     50     (2,1,5)               8.58909836E-05  0.0000000       0.0000000           CHD-1      
     51     (2,1,6)               8.64126615E-05  0.0000000       0.0000000           CHD-1      
     52     (2,1,7)               8.66380643E-05  0.0000000       0.0000000           CHD-1      
     53     (2,1,8)               8.67367158E-05  0.0000000       0.0000000           CHD-1      
     54     (2,1,9)               8.67804398E-05  0.0000000       0.0000000           CHD-1      
     55     (2,1,10)              8.68000874E-05  0.0000000       0.0000000           CHD-1      
     56     (2,1,11)              8.68091101E-05  0.0000000       0.0000000           CHD-1      
     57     (2,1,12)              8.68135156E-05  0.0000000       0.0000000           CHD-1      
     58     (2,1,13)              8.68161786E-05  0.0000000       0.0000000           CHD-1      
     59     (2,1,14)              8.68188635E-05  0.0000000       0.0000000           CHD-1      
     60     (2,1,15)              8.68235149E-05  0.0000000       0.0000000           CHD-1      
     61     (2,1,16)              8.68338999E-05  0.0000000       0.0000000           CHD-1      
     62     (2,1,17)              8.68593300E-05  0.0000000       0.0000000           CHD-1      
     63     (2,1,18)              8.69251938E-05  0.0000000       0.0000000           CHD-1      
     64     (2,1,19)              8.71059442E-05  0.0000000       0.0000000           CHD-1      
     65     (2,1,20)              8.76373048E-05  0.0000000       0.0000000           CHD-1      
     66     (2,1,21)              1.10230724E-04  0.0000000       0.0000000           CHD-1      
     67     (2,2,1)               7.23722472E-05  0.0000000       0.0000000           CHD-1      
     68     (2,3,1)               8.26354588E-05  0.0000000       0.0000000           CHD-1      
     69     (2,4,1)               1.81658889E-04  0.0000000       0.0000000           CHD-1      
     70     (2,46,26)            -1.83366779E-04 -3.30986637-191  0.0000000           CHD-1      
     71     (2,47,26)            -8.57880774E-05 -5.98656519-195  0.0000000           CHD-1      
     72     (2,48,26)            -8.16436206E-05  1.00280534-198 -8.18726588-203      CHD-1      
     73     (2,49,26)            -7.20775385E-05  8.12631950-201 -5.85725106-205      CHD-1      
     74     (2,50,10)            -1.10248728E-04  3.09637237-189 -3.41371114-193      CHD-1      
     75     (2,50,11)            -8.76388511E-05  8.48705391-189 -7.43795654-193      CHD-1      
     76     (2,50,12)            -8.71061564E-05  1.91961788-188 -1.67210535-192      CHD-1      
     77     (2,50,13)            -8.69244426E-05  3.84110746-188 -3.33886125-192      CHD-1      
     78     (2,50,14)            -8.68572525E-05 -3.65137935-189  0.0000000           CHD-1      
     79     (2,50,15)            -8.68292957E-05  1.77967914-190 -1.54528286-194      CHD-1      
     80     (2,50,16)            -8.68136416E-05 -7.18967455-192  0.0000000           CHD-1      
     81     (2,50,17)            -8.67977359E-05  3.06313236-193 -2.65872953-197      CHD-1      
     82     (2,50,18)            -8.67707722E-05 -1.59619960-194  0.0000000           CHD-1      
     83     (2,50,19)            -8.67153500E-05  1.09971102-195 -9.53618257-200      CHD-1      
     84     (2,50,20)            -8.65954902E-05 -1.06446714-196  0.0000000           CHD-1      
     85     (2,50,21)            -8.63319711E-05  1.47670422-197 -1.27486786-201      CHD-1      
     86     (2,50,22)            -8.57466957E-05 -2.92690785-198  0.0000000           CHD-1      
     87     (2,50,23)            -8.44296988E-05  7.61162877-199 -6.42647524-203      CHD-1      
     88     (2,50,24)            -8.13387227E-05 -2.05612693-199  0.0000000           CHD-1      
     89     (2,50,25)            -7.20775385E-05  2.46496749-200 -1.77668789-204      CHD-1      
     90     (2,50,26)             0.0000000       0.0000000       0.0000000           CHD-1      
     91     (3,1,1)               0.0000000       0.0000000       0.0000000           CHD-1      
     92     (3,1,2)               1.56955096E-02  0.0000000       0.0000000           CHD-1      
     93     (3,1,3)               2.24428249E-02  0.0000000       0.0000000           CHD-1      
     94     (3,1,4)               2.52677805E-02  0.0000000       0.0000000           CHD-1      
     95     (3,1,5)               2.64601431E-02  0.0000000       0.0000000           CHD-1      
     96     (3,1,6)               2.69692627E-02  0.0000000       0.0000000           CHD-1      
     97     (3,1,7)               2.71893325E-02  0.0000000       0.0000000           CHD-1      
     98     (3,1,8)               2.72856544E-02  0.0000000       0.0000000           CHD-1      
     99     (3,1,9)               2.73283461E-02  0.0000000       0.0000000           CHD-1      
    100     (3,1,10)              2.73475298E-02  0.0000000       0.0000000           CHD-1      
    101     (3,1,11)              2.73563395E-02  0.0000000       0.0000000           CHD-1      
    102     (3,1,12)              2.73606409E-02  0.0000000       0.0000000           CHD-1      
    103     (3,1,13)              2.73632410E-02  0.0000000       0.0000000           CHD-1      
    104     (3,1,14)              2.73658626E-02  0.0000000       0.0000000           CHD-1      
    105     (3,1,15)              2.73704042E-02  0.0000000       0.0000000           CHD-1      
    106     (3,1,16)              2.73805440E-02  0.0000000       0.0000000           CHD-1      
    107     (3,1,17)              2.74053736E-02  0.0000000       0.0000000           CHD-1      
    108     (3,1,18)              2.74696820E-02  0.0000000       0.0000000           CHD-1      
    109     (3,1,19)              2.76461547E-02  0.0000000       0.0000000           CHD-1      
    110     (3,1,20)              2.81647402E-02  0.0000000       0.0000000           CHD-1      
    111     (3,1,21)              4.76702082E-02  0.0000000       0.0000000           CHD-1      
    112     (3,2,1)               1.56955096E-02  0.0000000       0.0000000           CHD-1      
    113     (3,3,1)               2.33905249E-02  0.0000000       0.0000000           CHD-1      
    114     (3,4,1)               6.23453592E-02  0.0000000       0.0000000           CHD-1      
    115     (3,46,26)            -6.40077876E-02 -4.52916010-188  0.0000000           CHD-1      
    116     (3,47,26)            -2.63598831E-02 -1.74712342-191  0.0000000           CHD-1      
    117     (3,48,26)            -2.24267945E-02 -5.63716918-195  0.0000000           CHD-1      
    118     (3,49,26)            -1.54079695E-02 -1.78116048-197  0.0000000           CHD-1      
    119     (3,50,10)            -4.76877866E-02  2.96079506-186 -1.41193763-187      CHD-1      
    120     (3,50,11)            -2.81662500E-02  7.87307893-186 -2.21755109-187      CHD-1      
    121     (3,50,12)            -2.76463619E-02  1.75734452-185 -4.85841827-187      CHD-1      
    122     (3,50,13)            -2.74689486E-02  3.49532293-185 -9.60128458-187      CHD-1      
    123     (3,50,14)            -2.74033452E-02 -3.34243125-186  0.0000000           CHD-1      
    124     (3,50,15)            -2.73760486E-02  1.61319505-187 -4.41629059-189      CHD-1      
    125     (3,50,16)            -2.73607641E-02 -6.56337816-189  0.0000000           CHD-1      
    126     (3,50,17)            -2.73452338E-02  2.77211637-190 -7.58041703-192      CHD-1      
    127     (3,50,18)            -2.73189067E-02 -1.45515664-191  0.0000000           CHD-1      
    128     (3,50,19)            -2.72647931E-02  9.92579206-193 -2.70624667-194      CHD-1      
    129     (3,50,20)            -2.71477636E-02 -9.63947682-194  0.0000000           CHD-1      
    130     (3,50,21)            -2.68904775E-02  1.31156983-194 -3.52687391-196      CHD-1      
    131     (3,50,22)            -2.63192622E-02 -2.55103202-195  0.0000000           CHD-1      
    132     (3,50,23)            -2.50384868E-02  6.17605368-196 -1.54639039-197      CHD-1      
    133     (3,50,24)            -2.21293139E-02 -1.44239189-196  0.0000000           CHD-1      
    134     (3,50,25)            -1.54079695E-02  1.30778371-197 -2.01502916-199      CHD-1      
    135     (3,50,26)             0.0000000       0.0000000       0.0000000           CHD-1      
 ------------------------------------------------------------------------------------------------



1
  CONCENTRATION IN LAYER   1 AT END OF TIME STEP   1 IN STRESS PERIOD    1
  ---------------------------------------------------------------------------

                1               2               3               4               5               6               7               8               9              10
               11              12              13              14              15              16              17              18              19              20
               21              22              23              24              25              26
 ................................................................................................................................................................................................................................................................................................................................................................................................................................
   1      0.00000        7.828795E-36   -7.705788E-34   -1.838357E-32    4.376229E-29   -1.580307E-27    1.870740E-26    1.820806E-26    1.739703E-26    1.342439E-28
         1.968990E-31    1.145717E-31    4.650221E-34    3.697221E-37    1.246334E-40    3.095019E-44    1.548801E-47    4.518701E-51    1.481317E-54    9.159611E-58
         9.718155E-61    1.654783E-63    5.899057E-67    2.309668E-70   -6.046917E-74   -6.218641E-77
   2    -8.825132E-36    2.655799E-34   -4.114685E-32    1.642127E-30    1.287544E-27   -1.318901E-24    2.447088E-23    2.312895E-23    2.202779E-23    1.136850E-25
         1.717864E-28    1.603596E-28    5.116397E-31    2.696608E-34    3.036309E-38    1.089310E-41    1.619413E-45    2.981872E-49    8.369809E-53    3.848146E-56
         3.235242E-59    3.146311E-62    2.073127E-65    9.147122E-69    2.656371E-72    8.092073E-76
   3    -1.848946E-33    5.323495E-32   -1.613658E-30    7.393428E-29    1.381357E-26   -2.955640E-23    1.502712E-20    1.375491E-20    1.314343E-20    2.953626E-24
         1.459394E-25    1.443042E-25    2.071808E-28    1.143400E-32    3.208009E-36    3.099436E-40    3.344237E-44    5.444957E-48    1.333978E-51    5.056965E-55
         2.920071E-58    1.532219E-61    6.845296E-65    2.025132E-68    3.675863E-72    6.213990E-76
   4    -2.949336E-32    9.607951E-30   -1.948502E-28   -2.645982E-26    1.410736E-23   -6.654506E-23   -1.118329E-18   -1.314830E-18   -1.345225E-18    2.973503E-22
         3.227859E-22    3.194944E-22    2.917325E-26    4.410031E-30    4.033308E-34    1.887004E-38    1.841183E-42    2.021090E-46    3.712739E-50    9.167938E-54
         2.277861E-57    6.405975E-61    1.627192E-64    2.729589E-68    3.121409E-72    2.737986E-76
   5    -2.072277E-30    7.924617E-29   -4.411661E-26    2.102868E-23    3.870758E-18   -2.450173E-15   -3.812046E-13   -4.087059E-13   -4.280771E-13    3.148333E-16
        -1.795261E-19   -2.015889E-19    1.561417E-23    1.994331E-27    4.636333E-32    1.933367E-36    9.328915E-41    8.680260E-45    9.442229E-49    1.132146E-52
         1.665372E-56    2.435355E-60    2.594915E-64    2.367465E-68    1.511086E-72    6.720946E-77
   6    -1.969505E-30    7.940211E-28    7.742393E-24    4.258180E-18   -4.037859E-15   -2.571619E-09    1.306263E-06    1.224472E-06    1.179982E-06    4.079345E-10
        -1.199735E-13   -1.213092E-13    1.989138E-17    6.000314E-22    5.905869E-28    7.203791E-33    1.411915E-38    3.209332E-43    1.873949E-47    1.514625E-51
         1.123044E-55    6.304799E-60    3.439038E-64    1.641254E-68    5.564542E-73    1.217263E-77
   7    -1.129783E-29    1.289467E-26   -8.770499E-22   -1.645358E-15   -2.695798E-09    1.998223E-06     4.99970         4.99973         4.99974        1.851159E-06
         5.961162E-07    5.910438E-07    5.354936E-11    2.124183E-17    3.082694E-22    1.368594E-28    4.563647E-35    2.201576E-41    4.676650E-46    1.594885E-50
         4.441293E-55    1.277288E-59    3.619968E-64    8.844723E-69    1.544403E-73    1.640376E-78
   8     1.288473E-30    3.216104E-25    2.472100E-20    1.386277E-13    7.861878E-07     4.99981         4.99985         4.99986         4.99987         4.99987    
          4.99987         4.99987        8.366418E-07    3.108058E-11    5.095892E-18    6.874611E-25    8.927748E-32    1.226328E-38    7.875343E-45    8.210855E-50
         1.192488E-54    1.849723E-59    2.763115E-64    3.480782E-69    3.112807E-74    1.617329E-79
   9     1.013968E-31    1.592422E-26    4.521675E-21    4.272546E-14    4.349253E-07     4.99991         99.9982         99.9984         99.9985         99.9986    
          4.99994         4.99993         4.99993        2.767581E-07    1.531447E-14    8.665782E-22    5.121849E-29    3.228625E-36    2.449775E-43    1.609166E-49
         9.500290E-55    6.776613E-60    4.712631E-65    2.776112E-70    1.149026E-75    2.514141E-81
  10     2.059355E-33    7.989809E-28    7.486538E-22    1.269520E-14    2.370850E-07     4.99995         99.9991         99.9992         99.9992         99.9993    
          9.99993         9.99993         4.99997        1.475597E-07    4.329406E-15    1.294860E-22    4.030689E-30    1.330432E-37    5.603911E-45    2.406898E-51
         4.309211E-57   -5.184639E-63   -1.535868E-67   -1.245105E-72   -6.067273E-78   -1.595855E-83
  11     4.423400E-35    4.056631E-29    1.181855E-22    3.689332E-15    1.279373E-07     4.99998         499.997         499.998         499.998         99.9996    
          49.9998         9.99996         4.99998        7.891588E-08    1.229862E-15    1.945053E-23    3.188063E-31    5.521767E-39    1.361282E-46    4.507145E-53
         4.751725E-59    3.779310E-65    1.193859E-70    1.461432E-75    9.049107E-81    2.769859E-86
  12     9.680127E-37    2.115565E-30    1.802405E-23    1.053153E-15    6.846980E-08     4.99999         499.999         999.998         999.998         99.9998    
          49.9999         9.99998         4.99999        4.230660E-08    3.507061E-16    2.933173E-24    2.528796E-32    2.297366E-40    3.414673E-48    7.729323E-55
         3.915183E-61    8.971728E-68   -1.112066E-73   -6.050838E-79   -4.781095E-84   -1.878026E-89
  13     2.179376E-38    1.142894E-31    2.680491E-24    2.964329E-16    3.640193E-08     4.99999         499.999         999.999         999.999         99.9999    
          49.9999         9.99999         5.00000        2.272057E-08    1.003014E-16    4.437089E-25    2.010768E-33    9.585747E-42    8.780765E-50    1.255271E-56
         3.096340E-63    3.159208E-70   -7.495836E-77    2.235049E-82    1.074298E-87    5.568406E-93
  14     5.062281E-40    6.420550E-33    3.913511E-25    8.252946E-17    1.925156E-08     5.00000         500.000        100.0000        100.0000         99.9999    
          50.0000         9.99999         5.00000        1.221549E-08    2.874393E-17    6.727276E-26    1.601906E-34    4.011487E-43    2.291121E-51    1.944093E-58
         2.336836E-65    1.012923E-72   -1.525378E-79    4.212163E-86   -1.933728E-91   -8.869439E-97
  15     1.214365E-41    3.751232E-34    5.636586E-26    2.278309E-17    1.013914E-08     5.00000         10.0000         50.0000         50.0000         50.0000    
          50.0000        10.00000         5.00000        6.570674E-09    8.246403E-18    1.021356E-26    1.277811E-35    1.683420E-44    6.008253E-53    2.891688E-60
         1.698142E-67    3.150383E-75   -2.435625E-82    5.428468E-89   -6.401145E-96    9.277624-101
  16     3.081305E-43    2.276323E-35    8.057012E-27    6.261559E-18    5.329621E-09     5.00000        10.00000        10.00000        10.00000        10.00000    
         10.00000        10.00000         5.00000        3.534042E-09    2.366419E-18    1.551443E-27    1.019900E-36    7.081465E-46    1.572019E-54    4.156122E-62
         1.196095E-69    9.539679E-78   -3.768523E-85    4.230138E-92   -8.320098E-99   -2.830543-105
  17     4.576354E-45    1.594191E-38    1.284412E-29    9.233151E-21    5.266325E-12    3.574961E-08     5.00000        10.00000        10.00000        10.00000    
         10.00000        10.00000         5.00000        1.899709E-09    6.787274E-19    2.355928E-28    8.139818E-38    2.984486E-47    4.083946E-56    5.802191E-64
         8.210302E-72    2.828774E-80   -5.626937E-88    3.258777E-95   -3.032719-102    5.031546-109
  18    -4.747198E-51    6.999762E-42    5.544729E-33    2.821602E-24    4.035655E-20    2.306305E-12    1.655613E-08     5.00000         5.00000         5.00000    
          5.00000         10.0000         5.00000        1.020213E-09    1.944455E-19    3.573919E-29    6.491765E-39    1.259479E-48    1.051004E-57    7.909127E-66
         5.525061E-74    8.348821E-83   -8.058087E-91    2.431502E-98   -1.155862-105    6.485930-113
  19     2.639202E-53    1.105543E-45    6.592500E-37    1.719282E-32    5.904803E-25    8.232235E-21    9.833247E-13    7.800789E-09     5.00000         5.00000    
          5.00000         5.00000         5.00000        5.470654E-10    5.559111E-20    5.410420E-30    5.168498E-40    5.315092E-50    2.658308E-59    1.043682E-67
         3.566129E-76    1.831681E-85   -1.512421E-93    1.550310-101   -4.340456-109    1.238995-116
  20     1.013108E-58    5.498454E-50    2.805305E-45    7.429919E-38    1.692067E-33    1.145094E-25    1.656805E-21    4.126986E-13    3.478595E-09    3.200557E-09
         2.995475E-09    2.846320E-09    2.736769E-09   -1.050939E-13   -1.538567E-23   -1.698477E-33   -1.731014E-43   -3.277824E-53   -1.327955E-61   -8.545407E-70
        -4.795431E-78   -2.158525E-86   -6.416142E-95   -1.319155-103   -3.857905-112    2.050872-120
  21     1.273945E-62    1.734350E-58    4.016917E-51    1.505556E-46    7.135787E-39    1.557193E-34    2.120061E-26    3.168617E-22    1.270082E-18    1.074307E-18
         9.390430E-19    8.454767E-19    7.793560E-19   -6.154835E-23    1.046727E-27    1.678220E-37    1.947190E-47    2.085715E-57    1.640103E-64    1.660315E-72
         1.159007E-80    6.503296E-89    2.797030E-97    7.860240-106    1.348325-114    1.769229-123
  22     2.601271E-69    1.910645E-63    8.996446E-60    2.147292E-52    6.925985E-48    6.226370E-40    1.337056E-35    9.589775E-32    2.439365E-28    1.896680E-28
         1.546120E-28    1.316144E-28    1.160295E-28   -1.413112E-32    4.966373E-37   -5.368091E-42   -9.078747E-52   -1.141457E-61   -4.973772E-71   -9.916975E-76
        -1.061697E-83   -7.233084E-92   -3.683717-100   -1.326325-108   -2.794379-117   -2.833506-126
  23     7.591560E-74    2.153177E-70    7.907943E-65    2.272127E-61    9.621631E-54    2.860930E-49    2.975415E-45    1.363743E-41    2.708414E-38    1.937799E-38
         1.472192E-38    1.182791E-38    9.950736E-39   -1.536714E-42    8.519814E-47   -1.948363E-51    1.646082E-56    2.965196E-66    1.984536E-74    1.925098E-82
         4.102488E-87    4.288944E-95    2.625771-103    1.094511-111    2.831685-120    3.426072-129
  24     5.438359E-81    1.566795E-75    3.748135E-72    5.528787E-67    3.523061E-63    1.803045E-58    3.724504E-55    6.745548E-50    2.126178E-47    1.391113E-47
         9.754507E-48    7.288047E-48    5.738047E-48   -5.214114E-51    7.485947E-57   -3.254195E-61    5.755132E-66   -4.745665E-71   -1.010269E-80   -6.005355E-86
        -4.889284E-94   -1.111533E-98   -8.839428-107   -3.537199-115   -8.176340-124   -9.733742-133
  25     1.432587E-86    4.769976E-83    6.605435E-78    1.094042E-74    2.428656E-69    2.106635E-66    1.067763E-60    5.733781E-58    8.066343E-56    4.722497E-56
         2.988381E-56    2.023637E-56    1.445790E-56   -2.710058E-59    1.140638E-62   -4.165832E-70    9.517601E-74   -1.925407E-79    1.710722E-84    6.911318E-94
         3.144160E-97    1.531523-105    3.850249-109    4.539187-117    2.246942-125    4.758082-134
  26     2.261411E-94    2.569527E-89    8.089709E-86    1.602085E-80    2.091787E-77    7.270899E-72    5.891041E-69    1.853941E-66    2.082899E-64    8.950068E-65
         5.605231E-65    4.103398E-65    3.100573E-65   -9.364941E-68    7.352137E-71   -1.240005E-74    5.579897E-82   -2.501086E-85    2.826720E-92   -7.133329E-96
         1.921153-103   -4.560443-107    7.183821-116   -5.915080-119   -5.102142-127   -1.467578-135
  27     6.308290-101    2.754535E-97    6.571625E-92    1.489690E-88    4.329748E-83    4.401295E-80    1.158636E-77    6.026429E-76    1.228218E-77    5.467480E-74
         1.134046E-73    1.499000E-73    1.780686E-73   -1.318990E-75    3.439277E-78   -3.945688E-81    1.734534E-84   -1.891715E-91    6.248278E-95   -4.043334-102
         1.108558-105   -3.517613-113    7.331614-117   -3.020070-125    7.746555-129    4.585323-137
  28     1.501767-108    3.425579-103    1.781529E-99    7.138520E-94    1.782211E-90    1.519192E-87    5.886826E-85    1.100643E-82    8.538064E-81    5.983235E-81
         4.667389E-81    4.019942E-81    3.781157E-81   -3.629269E-83    1.449055E-85   -3.048486E-88    3.364780E-91   -1.532299E-94    2.539530-101   -9.631023-105
         9.182303-112   -2.709045-115    1.066669-122   -1.943129-126    6.817405-135   -1.117356-138
  29     8.144939-114    4.903625-110    2.043962-104    7.247831-101    8.580416E-98    4.718381E-95    1.354631E-92    2.027700E-90    1.291111E-88    8.882567E-89
         6.983693E-89    6.142511E-89    5.962005E-89   -8.347643E-91    5.277910E-93   -1.935248E-95    4.268930E-98   -5.210568-101    2.644393-104   -7.630844-111
         3.246793-114   -4.653530-121    1.419776-124   -5.491003-132    8.500210-136    5.013645-146
  30     8.026377-121    3.051626-115    1.879235-111    3.524140-108    2.974578-105    1.323699-102    3.293708-100    4.441782E-98    2.596636E-96    1.860500E-96
         1.535974E-96    1.425328E-96    1.465401E-96   -2.826870E-98    2.610007-100   -1.501190-102    5.697661-105   -1.374932-107    1.859263-110   -1.027993-113
         5.444158-120   -2.427186-123    5.270962-130   -1.515001-133    3.759143-141   -4.982065-145
  31     5.934155-126    5.019899-122    1.629825-118    2.176808-115    1.489015-112    5.771177-110    1.306187-107    1.643105-105    9.070098-104    6.856486-104
         6.001992-104    5.917730-104    6.473690-104   -1.619638-105    2.025687-107   -1.669962-109    9.758803-112   -3.984611-114    1.051365-116   -1.535885-119
         8.864773-123   -8.889064-129    3.804010-132   -1.239905-138    2.854903-142   -1.095240-150
  32     1.988416-132    8.944535-129    2.040564-125    2.178354-122    1.281345-119    4.474566-117    9.405713-115    1.119543-112    5.906431-111    4.728689-111
         4.397903-111    4.608682-111    5.356875-111   -1.658796-112    2.655260-114   -2.932516-116    2.432715-118   -1.515869-120    6.709758-123   -1.897202-125
         2.873653-128   -1.633062-131    3.109964-137   -1.143318-140    5.227331-147   -7.488991-151
  33     7.465831-139    2.348631-135    4.228087-132    3.830142-129    2.003708-126    6.428376-124    1.269677-121    1.441223-119    7.318098-118    6.213858-118
         6.140005-118    6.828619-118    8.407501-118   -3.111103-119    6.109642-121   -8.599639-123    9.548258-125   -8.451743-127    5.711675-129   -2.705763-131
         7.903796-134   -1.172082-136    6.067147-140   -2.123544-145    5.729929-149   -3.357919-155
  34     4.112678-145    1.012540-141    1.530764-138    1.220557-135    5.806215-133    1.734419-130    3.245245-128    3.532836-126    1.735548-124    1.564513-124
         1.641822-124    1.934319-124    2.513907-124   -1.081849-125    2.522637-127   -4.355652-129    6.193510-131   -7.396161-133    7.162627-135   -5.217804-137
         2.562845-139   -7.321596-142    9.829648-145   -4.165944-148    2.452253-153   -4.881807-157
  35     3.675242-151    7.534899-148    9.944028-145    7.153996-142    3.144506-139    8.835643-137    1.576436-134    1.653605-132    7.894033-131    7.563252-131
         8.427310-131    1.049940-130    1.435366-130   -7.028740-132    1.895271-133   -3.892580-135    6.845994-137   -1.060596-138    1.406859-140   -1.490421-142
         1.138778-144   -5.503534-147    1.422360-149   -1.549563-152    4.584224-156   -4.917878-161
  36     5.599156-157    9.947098-154    1.176858-150    7.778075-148    3.197952-145    8.522479-143    1.458079-140    1.479904-138    6.892134-137    7.028303-137
         8.315383-137    1.093860-136    1.567818-136   -8.579487-138    2.616412-139   -6.228039-141    1.315923-142   -2.562364-144    4.498347-146   -6.666252-148
         7.548397-150   -5.752474-152    2.530057-154   -5.289873-157    3.960076-160   -9.351373-164
  37     1.495917-162    2.368524-159    2.562142-156    1.577388-153    6.126344-151    1.559250-148    2.570792-146    2.534505-144    1.155649-142    1.256598-142
         1.579235-142    2.190667-142    3.281774-142   -1.976420-143    6.686770-145   -1.803158-146    4.461560-148   -1.062511-149    2.400009-151   -4.832660-153
         7.854066-155   -9.059556-157    6.366248-159   -2.271954-161    3.236432-164   -1.885013-167
  38     7.132414-168    1.028180-164    1.032818-161    5.989971-159    2.215655-156    5.418047-154    8.647574-152    8.311482-150    3.722999-148    4.326280-148
         5.779802-148    8.446257-148    1.318792-147   -8.626701-149    3.183486-150   -9.527238-152    2.696718-153   -7.660627-155    2.171308-156   -5.800764-158
         1.322876-159   -2.254368-161    2.448558-163   -1.409600-165    3.415532-168   -3.728546-171
  39     6.138479-173    8.195390-170    7.743294-167    4.270930-164    1.515227-161    3.578955-159    5.552995-157    5.221529-155    2.305236-153    2.870690-153
         4.081605-153    6.279061-153    1.019271-152   -7.160078-154    2.838847-155   -9.253397-157    2.931264-158   -9.697713-160    3.367140-161   -1.167707-162
         3.671038-164   -9.112167-166    1.506725-167   -1.364450-169    5.344558-172   -9.820140-175
  40     9.609343-178    1.205237-174    1.083044-171    5.729043-169    1.961760-166    4.497361-164    6.810158-162    6.286580-160    2.744435-158    3.674769-158
         5.569236-158    9.014978-158    1.517929-157   -1.133837-158    4.765541-160   -1.663086-161    5.774626-163   -2.173130-164    9.019905-166   -3.970929-167
         1.692722-168   -6.066783-170    1.522347-171   -2.158478-173    1.343032-175   -3.966862-178
  41     2.750138-182    3.280829-179    2.832077-176    1.447822-173    4.812785-171    1.075659-168    1.595596-166    1.450988-164    6.284720-163    9.085402-163
         1.470573-162    2.503940-162    4.363964-162   -3.436478-163    1.513091-164   -5.566357-166    2.077454-167   -8.687129-169    4.201327-170   -2.290544-171
         1.299346-172   -6.674662-174    2.553956-175   -5.734954-177    5.711078-179   -2.688544-181
  42     1.443742-186    1.656633-183    1.386570-180    6.900708-178    2.239048-175    4.899043-173    7.144082-171    6.422154-169    2.769834-167    4.344866-167
         7.529048-167    1.348113-166    2.426849-166   -1.999523-167    9.127974-169   -3.491532-170    1.375591-171   -6.246578-173    3.426217-174   -2.248271-175
         1.656244-176   -1.206054-177    7.098174-179   -2.590940-180    4.273731-182   -3.320906-184
  43     1.393193-190    1.553824-187    1.272462-184    6.209672-182    1.977156-179    4.251594-177    6.115173-175    5.453278-173    2.351401-171    4.027703-171
         7.493439-171    1.410369-170    2.616518-170   -2.240424-171    1.051005-172   -4.131048-174    1.690770-175   -8.157470-177    4.934773-178   -3.772794-179
         3.491924-180   -3.527841-181    3.212994-182   -1.987771-183    5.923133-185   -9.182992-187
  44     2.475042-194    2.710278-191    2.191578-188    1.056558-185    3.319154-183    7.040477-181    1.001739-178    8.892046-177    3.850988-175    7.262405-175
         1.455434-174    2.876961-174    5.485660-174   -4.851477-175    2.321055-176   -9.283937-178    3.894410-179   -1.957297-180    1.270223-181   -1.092056-182
         1.216767-183   -1.637814-184    2.289783-185   -2.580197-186    1.870231-187   -1.125121-188
  45     8.120754-198    8.818115-195    7.108271-192    3.412993-189    1.064105-186    2.234388-184    3.151943-182    2.793008-180    1.221324-178    2.564357-178
         5.555509-178    1.151241-177    2.248341-177   -2.041682-178    9.898452-180   -3.998429-181    1.700867-182   -8.758725-184    5.942498-185   -5.540559-186
         7.074751-187   -1.188589-187    2.455654-188   -6.061951-189    2.276293-189   -4.277372-190
  46     5.035005-201    5.473568-198    4.442629-195    2.143544-192    6.675770-190    1.391767-187    1.946715-185    1.722134-183    7.636223-182    1.812797-181
         4.256361-181    9.209654-181    1.833389-180   -1.699334-181    8.304164-183   -3.368483-184    1.441968-185   -7.513180-187    5.213528-188   -5.090922-189
         7.092838-190   -1.371456-190    3.856407-191   -2.815341-191    3.641235-191   -9.022396-192
  47     7.378180-204    8.082419-201    6.658926-198    3.250105-195    1.013647-192    2.087901-190    2.854659-188    2.468653-186    1.091459-184    2.956500-184
         7.452298-184    1.664095-183    3.349365-183   -3.146671-184    1.542629-185   -6.259064-187    2.682909-188   -1.402512-189    9.792657-191   -9.708649-192
         1.406987-192   -2.895381-193    8.078714-194   -3.854963-194    1.552632-194   -5.024812-195
  48     5.667104-206    6.260111-203    5.263085-200    2.615240-197    8.218052-195    1.675835-192    2.220430-190    1.824443-188    7.642167-187    2.273411-186
         5.944790-186    1.344714-185    2.714232-185   -2.568387-186    1.259921-187   -5.107079-189    2.188821-190   -1.145023-191    8.001675-193   -7.952630-194
         1.169805-194   -2.536018-195    7.185855-196   -1.744845-196    2.011659-197   -2.893666-198
  49     9.787174-208    1.090833-204    9.371417-202    4.816685-199    1.572014-196    3.328857-194    4.587094-192    3.944206-190    1.748160-188    6.360726-188
         1.807992-187    4.207177-187    8.559818-187   -8.155813-188    4.001149-189   -1.619800-190    6.938125-192   -3.628791-193    2.533552-194   -2.511651-195
         3.690361-196   -8.182343-197    2.609961-197   -8.302366-198    2.100169-199   -8.715887-201
  50     1.733252-209    1.899244-206    1.597221-203    8.142061-201    2.660915-198    5.711088-196    8.131102-194    7.518936-192    3.529583-190    1.531009-189
         4.498327-189    1.052032-188    2.139361-188   -2.069195-189    9.984140-191   -4.099455-192    1.728284-193   -9.170937-195    6.294121-196   -6.305502-197
         9.030936-198   -1.994143-198    6.106414-199   -2.033647-199    1.356198-200     0.00000    
1
  CONCENTRATION IN LAYER   2 AT END OF TIME STEP   1 IN STRESS PERIOD    1
  ---------------------------------------------------------------------------

                1               2               3               4               5               6               7               8               9              10
               11              12              13              14              15              16              17              18              19              20
               21              22              23              24              25              26
 ................................................................................................................................................................................................................................................................................................................................................................................................................................
   1      0.00000        1.040546E-35   -2.685563E-34   -2.566309E-31    8.476310E-30   -1.218603E-28    6.418564E-28    6.948536E-28    6.737440E-28    1.022312E-29
         1.619551E-32    3.258983E-33    2.374021E-35    2.949444E-38    1.766367E-41    7.463864E-45    4.268965E-48    4.687918E-51    2.792124E-54    2.050225E-57
         3.176598E-60   -2.829425E-61   -4.218120E-63   -2.899861E-66   -1.281001E-69   -6.519987E-73
   2    -8.359101E-36    7.860907E-32   -1.170911E-29   -3.789472E-28    7.738927E-25   -1.768434E-23    1.351618E-22    1.377743E-22    1.324313E-22    1.480777E-24
         1.977450E-27    7.417702E-28    4.046270E-30    3.871250E-33    1.530373E-36    3.159785E-40    2.383440E-43    6.120709E-47    2.374034E-50    1.582056E-53
         1.867263E-56    2.876313E-59    2.151312E-62    1.269368E-65    3.933454E-69    1.310185E-72
   3    -7.394865E-34    1.811957E-29   -8.724302E-28    6.455981E-26    1.583244E-23   -4.329072E-20    8.068945E-19    7.655406E-19    7.303501E-19    3.758496E-21
         5.482039E-24    5.298252E-24    1.680598E-26    8.278298E-30    6.085337E-34    3.243863E-37    3.189266E-41    6.491010E-45    1.674107E-48    6.890797E-52
         4.412729E-55    1.916214E-58    9.804083E-62    3.244789E-65    6.379996E-69    1.512020E-72
   4    -2.559018E-31    6.544296E-28   -2.319509E-25    1.078754E-23    3.357818E-22   -7.638683E-19    5.392563E-15    4.922426E-15    4.699826E-15    2.263346E-19
         5.175086E-20    5.119698E-20    7.248671E-23    2.093638E-27    1.033506E-30    3.747677E-35    4.638197E-39    4.681827E-43    9.130201E-47    2.175487E-50
         4.453943E-54    1.279081E-57    2.723817E-61    4.904468E-65    5.473188E-69    8.018625E-73
   5    -1.602544E-29    1.000067E-25   -4.483075E-24    5.279791E-21   -2.473336E-19    6.505889E-15   -5.051546E-12   -4.710709E-12   -4.543633E-12   -2.270371E-16
         6.385041E-16    6.319700E-16    8.881645E-21    7.565533E-24    1.001472E-28    9.318225E-33    3.484611E-37    3.959965E-41    3.604884E-45    3.755818E-49
         5.307171E-53    5.341588E-57    5.797851E-61    5.383676E-65    3.206347E-69    2.655013E-73
   6    -4.323937E-27    9.973413E-26   -1.790662E-21    6.739443E-20    2.308895E-15   -4.697925E-12   -4.702965E-06   -4.591748E-06   -4.545555E-06   -4.174494E-12
        -1.135752E-12   -1.126725E-12    3.113852E-17    4.290165E-22    4.982650E-26    6.320407E-31    5.316497E-35    1.761086E-39    1.144878E-43    7.329157E-48
         3.332520E-52    1.720732E-56    9.415319E-61    4.383806E-65    1.341718E-69    5.920746E-74
   7     1.838540E-27    7.451217E-23   -2.614399E-21   -1.193250E-15   -6.965172E-13   -2.035270E-06    2.948906E-04    2.733971E-04    2.621350E-04   -2.400525E-06
        -2.328762E-06   -2.324050E-06   -1.009648E-12   -1.817527E-17   -4.614608E-24    2.057597E-28    2.218002E-33    1.173580E-37    3.093517E-42    6.445462E-47
         1.533324E-51    4.152141E-56    1.136716E-60    2.622621E-65    4.031368E-70    9.117977E-75
   8     2.264906E-28   -2.494424E-23   -6.572431E-18    2.817386E-13    6.677960E-07    1.850550E-04    1.360859E-04    1.238136E-04    1.168790E-04    1.117875E-04
         1.327718E-04    1.315048E-04   -1.216602E-06   -1.933720E-13   -1.068940E-19   -2.616565E-26    3.744097E-31    3.522682E-36    3.287008E-41    3.664887E-46
         4.829732E-51    6.952348E-56    9.689244E-61    1.117587E-65    8.577051E-71    9.723284E-76
   9    -3.900404E-29   -5.673373E-24   -7.439086E-19    7.759999E-14    3.486584E-07    1.069908E-04    1.753648E-03    1.581134E-03    1.481867E-03    1.424775E-03
         6.933528E-05    6.875631E-05    6.816446E-05   -6.045374E-09   -7.329276E-16   -6.882278E-23    2.840332E-30    2.865206E-35    1.170415E-40    6.028813E-46
         3.731894E-51    2.516543E-56    1.627654E-61    8.548568E-67    2.815010E-72    1.096391E-77
  10    -3.003461E-30   -2.822066E-25   -8.154542E-20    2.069026E-14    1.773367E-07    5.827720E-05    9.271747E-04    8.280943E-04    7.682268E-04    7.593610E-04
         7.062334E-05    7.223499E-05    3.588444E-05   -4.065777E-09   -2.525424E-16   -1.169611E-23    7.698127E-31    2.042715E-36    3.616359E-42    5.754579E-48
        -4.944785E-54   -1.661576E-58   -1.495775E-63   -9.238695E-69   -3.580128E-74   -1.951044E-79
  11    -6.550396E-32   -1.390884E-26   -8.817778E-21    5.400684E-15    8.869670E-08    3.681381E-05    2.576306E-03    2.268202E-03    2.086558E-03    4.007699E-04
         1.925449E-04    3.795306E-05    1.872410E-05   -2.650621E-09   -8.494251E-17   -1.934130E-24    1.317112E-31    1.472869E-37    1.362991E-43    1.241486E-49
         8.475376E-56    2.405250E-61    3.485556E-66    2.781597E-71    1.230335E-76    7.430782E-82
  12    -1.441045E-33   -6.889450E-28   -9.494772E-22    1.390324E-15    4.389371E-08    1.964404E-05    1.399196E-03    2.463344E-03    2.250213E-03    2.113631E-04
         1.020909E-04    1.987990E-05    9.775847E-06   -1.683539E-09   -2.800847E-17   -3.120043E-25    1.856486E-32    9.817588E-39    4.646972E-45    2.049572E-51
         4.266776E-58   -4.761062E-64   -2.625900E-69   -2.846846E-74   -1.577290E-79   -1.066922E-84
  13    -3.239138E-35   -3.452851E-29   -1.023617E-22    3.547054E-16    2.158065E-08    1.041218E-05    7.500497E-04    1.335011E-03    1.213886E-03    1.118810E-04
         5.377305E-05    1.042150E-05    5.107171E-06   -1.045689E-09   -9.080497E-18   -4.918850E-26    2.346700E-33    6.151292E-40    1.489679E-46    3.230597E-53
         2.972054E-60   -8.057547E-67    1.918878E-72    1.108010E-77    7.780966E-83    6.325645E-88
  14    -7.472807E-37   -1.756267E-30   -1.108340E-23    8.999349E-17    1.057026E-08    5.490170E-06    4.026828E-04    7.632855E-05    6.970597E-05    5.995452E-05
         2.834039E-05    5.467059E-06    2.669782E-06   -6.370294E-10   -2.900622E-18   -7.586435E-27    2.754900E-34    3.661361E-41    4.537466E-48    4.853271E-55
         1.907976E-62   -3.088169E-69    1.160528E-75   -3.700767E-81   -1.666562E-86   -1.543438E-91
  15    -1.770415E-38   -9.077149E-32   -1.207296E-24    2.275938E-17    5.167336E-09    2.442590E-06    6.173480E-06    1.915863E-05    1.733877E-05    1.607214E-05
         1.505897E-05    2.869676E-06    1.396449E-06   -3.815278E-10   -9.143227E-19   -1.145195E-27    3.059211E-35    2.086969E-42    1.324291E-49    7.009886E-57
         1.181975E-64   -1.008406E-71    2.423342E-78   -7.608621E-85    2.825145E-90    1.777395E-95
  16    -4.339244E-40   -4.897351E-33   -1.323864E-25    5.751296E-18    2.524347E-09    1.300024E-06    2.265290E-06    2.075183E-06    1.878443E-06    1.736120E-06
         1.636148E-06    1.510115E-06    7.308087E-07   -2.250938E-10   -2.847391E-19   -1.691967E-28    3.249507E-36    1.146308E-43    3.727933E-51    9.798792E-59
         7.100846E-67   -3.160132E-74    3.936080E-81   -9.131222E-88    1.408172E-94   -1.533878E-99
  17    -1.062618E-41   -1.761722E-34    5.827258E-30    2.389594E-21    3.470406E-17    7.395017E-09    6.087817E-07    1.067473E-06    9.653524E-07    8.900783E-07
         8.358253E-07    7.934376E-07    3.826299E-07   -1.310409E-10   -8.769046E-20   -2.445782E-29    3.326402E-37    6.097590E-45    1.017575E-52    1.332667E-60
         4.159102E-69   -9.540519E-77    6.161129E-84   -7.250344E-91    1.258942E-97   -1.571765-104
  18    -1.602728E-43   -1.503896E-40   -7.234849E-34    2.812413E-29    5.753515E-21    4.379701E-17    3.388745E-09    2.865479E-07    2.568111E-07    2.364220E-07
         2.215628E-07    4.189577E-07    2.004045E-07   -7.539196E-11   -2.673029E-20   -3.455924E-30    3.300423E-38    3.155320E-46    2.706773E-54    1.773484E-62
         2.415719E-71   -2.757039E-79    9.328467E-87   -5.611857E-94    4.784305-101   -1.337672-107
  19    -1.280460E-49   -9.582496E-43   -1.574037E-39    3.786032E-34    2.807628E-29    1.164216E-21    9.364578E-18    1.572778E-09    1.359285E-07    1.248604E-07
         1.166543E-07    1.115926E-07    1.059876E-07   -4.293293E-11   -8.071982E-21   -4.763991E-31    3.171399E-39    1.580118E-47    6.948975E-56    2.255963E-64
         9.889376E-74   -1.038182E-81    1.203230E-89   -4.285776E-97    1.821267-104   -2.432580-111
  20    -3.278215E-52   -7.524299E-49   -7.007780E-43   -7.451128E-40   -1.509419E-34    2.630001E-30    2.315806E-22    2.050848E-18    6.553058E-10    6.028984E-10
         5.640550E-10    5.357157E-10    5.148733E-10    5.133030E-20    7.375794E-25    1.467152E-34   -2.247792E-41   -1.813093E-49   -1.118156E-57   -6.059899E-66
        -2.734630E-74   -8.586426E-83   -2.010828E-91   -7.584081-100    6.198450-108   -4.580378-115
  21    -1.635178E-58   -1.163570E-52   -2.506661E-49   -8.974901E-44   -6.035229E-41    1.202826E-36    2.525773E-31    4.260775E-23    4.008899E-19    3.391273E-19
         2.963331E-19    2.666813E-19    2.457158E-19   -7.882114E-24   -9.070522E-34   -4.440573E-39   -1.422887E-49    4.271868E-52    4.161405E-60    2.843368E-68
         1.617962E-76    7.431165E-85    2.397481E-93    5.272369-102    1.058893-110   -6.752929-119
  22    -9.198029E-63   -2.689738E-59   -1.001729E-53   -1.258548E-50   -2.087120E-45   -1.297081E-42    6.958169E-37    2.213515E-32   -4.421297E-28   -3.449230E-28
        -2.801776E-28   -2.364491E-28   -2.060442E-28   -3.092138E-33    4.304923E-38    3.231458E-47   -6.571927E-51   -2.565477E-59   -4.523405E-63   -4.788564E-71
        -3.336110E-79   -1.826173E-87   -7.589719E-96   -2.057690-104   -3.196296-113   -9.172859-122
  23    -1.295657E-69   -3.825447E-64   -9.603147E-61   -1.319942E-55   -1.380562E-52   -4.477094E-47   -2.727710E-44   -2.690712E-38   -8.805891E-36   -6.277071E-36
        -4.740032E-36   -3.769160E-36   -3.125998E-36    3.161660E-39   -7.825935E-47    2.209166E-50   -2.717216E-58    5.422332E-62    2.840915E-70    2.899509E-74
         3.098333E-82    2.037456E-90    9.787068E-99    3.251450-107    6.014715-116    1.456512-124
  24    -6.786731E-75   -2.312221E-71   -3.359498E-66   -5.939642E-63   -1.436955E-57   -1.371483E-54   -7.726062E-49   -4.596251E-46   -7.147953E-44   -4.620375E-44
        -3.207184E-44   -2.367500E-44   -1.834921E-44    3.733658E-47   -1.678105E-50    5.257932E-58   -9.526789E-62    1.286261E-69   -2.088797E-73   -9.247935E-82
        -9.240438E-86   -7.924076E-94   -3.670735-102   -1.085428-110   -1.928107-119   -4.425868-128
  25    -2.334349E-82   -2.730742E-77   -9.061045E-74   -1.945803E-68   -2.798343E-65   -1.083591E-59   -9.340825E-57   -2.590749E-54   -2.455278E-52   -1.365689E-52
        -8.130494E-53   -5.076573E-53   -3.230401E-53    8.326713E-56   -5.710463E-59    9.008457E-63   -5.151901E-71   -1.616732E-74    2.397711E-81   -8.697003E-85
        -1.374179E-93   -1.915022E-96   -2.597964-104   -1.663532-112   -5.484966-121   -2.237065-129
  26    -6.803674E-89   -2.883327E-85   -6.535325E-80   -1.376913E-76   -3.717524E-71   -3.527818E-68   -9.052114E-66   -5.469894E-64   -1.004488E-62    4.005981E-62
         7.665615E-62    9.900266E-62    1.152719E-61   -8.291202E-64    2.067266E-66   -2.229234E-69    9.053426E-73   -6.261042E-80    1.605389E-83   -5.180868E-91
         1.109565E-94   -3.242234-103    1.858600-106    2.038037-114    9.002532-123    4.714208-131
  27     8.942377E-97    2.043919E-91    1.066357E-87    4.309329E-82    1.080856E-78    9.230075E-76    3.564040E-73    6.593167E-71    5.019815E-69    3.423869E-69
         2.578029E-69    2.124276E-69    1.891790E-69   -1.698846E-71    6.252354E-74   -1.192403E-76    1.173144E-79   -4.692228E-83    4.057482E-90   -1.144618E-93
         4.468488-101   -9.449865-105    5.397878-113   -1.541936-116   -1.391499-124   -1.126932-132
  28     3.871909-102    2.314221E-98    9.537325E-93    3.314128E-89    3.818355E-86    2.030011E-83    5.600953E-81    8.016082E-79    4.859746E-77    3.173891E-77
         2.360422E-77    1.954232E-77    1.772401E-77   -2.297417E-79    1.325819E-81   -4.362698E-84    8.484301E-87   -8.985429E-90    3.912108E-93   -4.748097-100
         1.514450-103   -6.778858-111    1.419618-114   -6.791711-123    1.645525-126    3.129448-134
  29     2.291805-109    8.643017-104    5.210112-100    9.472425E-97    7.685129E-94    3.263826E-91    7.707910E-89    9.827864E-87    5.419188E-85    3.659324E-85
         2.842880E-85    2.475390E-85    2.374621E-85   -4.239182E-87    3.572483E-89   -1.843052E-91    6.155058E-94   -1.283615E-96    1.479908E-99   -6.931103-103
         1.240801-109   -4.304775-113    1.886220-120   -3.859604-124   -1.252395-133   -5.715667-136
  30     9.263283-115    7.739821-111    2.454126-107    3.167358-104    2.074265-101    7.639226E-99    1.633943E-96    1.935901E-94    1.004962E-92    7.146120E-93
         5.883362E-93    5.447675E-93    5.572788E-93   -1.294111E-94    1.482359E-96   -1.099296E-98    5.659943-101   -1.994954-103    4.470202-106   -5.495937-109
         2.669958-112   -7.373847-119    2.574214-122   -7.702925-130    1.623160-133    2.646980-141
  31     1.645208-121    7.307523-118    1.627014-114    1.676543-111    9.426742-109    3.121952-106    6.188833-104    6.924921-102    3.431020-100    2.582471-100
         2.260248-100    2.228641-100    2.430275-100   -7.014451-102    1.033293-103   -1.031165-105    7.559063-108   -4.067296-110    1.524378-112   -3.605321-115
         4.557975-118   -2.180045-121    9.527638-128   -2.957554-131    4.804574-140   -2.335831-142
  32     3.249887-128    1.009453-124    1.773172-121    1.549701-118    7.742498-116    2.352610-113    4.375129-111    4.661302-109    2.220229-107    1.771684-107
         1.648617-107    1.728767-107    2.003960-107   -6.944683-109    1.262162-110   -1.614300-112    1.590617-114   -1.217638-116    6.952549-119   -2.738605-121
         6.617096-124   -8.173365-127    3.586825-130   -2.426117-136    5.443697-140    4.064383-147
  33     9.400750-135    2.285376-131    3.371083-128    2.592461-125    1.176917-122    3.325714-120    5.849804-118    5.967264-116    2.746211-114    2.325102-114
         2.299040-114    2.558900-114    3.142244-114   -1.272780-115    2.763831-117   -4.364968-119    5.538897-121   -5.736908-123    4.688755-125   -2.824146-127
         1.136536-129   -2.672405-132    3.006624-135   -1.097024-138    1.006393-144   -3.523119-148
  34     4.409199-141    8.927330-138    1.149630-134    7.975558-132    3.343389-129    8.876196-127    1.486252-124    1.458096-122    6.510106-121    5.852801-121
         6.146217-121    7.246801-121    9.393205-121   -4.351727-122    1.100108-123   -2.082296-125    3.290989-127   -4.442011-129    4.973801-131   -4.335005-133
         2.687202-135   -1.054859-137    2.252077-140   -2.089339-143    5.441177-147   -1.605460-152
  35     3.524979-147    6.185885-144    7.143055-141    4.552392-138    1.784130-135    4.486883-133    7.190929-131    6.811349-129    2.960870-127    2.829561-127
         3.154816-127    3.933293-127    5.362748-127   -2.790784-128    8.035263-130   -1.777525-131    3.403555-133   -5.811061-135    8.628853-137   -1.047901-138
         9.531426-141   -5.814927-143    2.077791-145   -3.642242-148    2.386226-151   -5.132482-155
  36     4.941143-153    7.730606-150    8.165424-147    4.848442-144    1.794236-141    4.304192-139    6.634294-137    6.088833-135    2.585142-133    2.629734-133
         3.113048-133    4.097600-133    5.857158-133   -3.371516-134    1.084694-135   -2.742921-137    6.211146-139   -1.308060-140    2.510045-142   -4.132587-144
         5.343512-146   -4.857237-148    2.720175-150   -7.983683-153    9.809507-156   -5.225295-159
  37     1.235733-158    1.761025-155    1.728399-152    9.672266-150    3.408304-147    7.846481-145    1.168250-142    1.042305-140    4.334844-139    4.702209-139
         5.912295-139    8.205421-139    1.225897-138   -7.701849-140    2.722065-141   -7.711782-143    2.019987-144   -5.129548-146    1.244120-147   -2.718370-149
         4.890035-151   -6.457917-153    5.467676-155   -2.528625-157    5.180049-160   -5.122398-163
  38     5.576044-164    7.363551-161    6.804032-158    3.623972-155    1.224947-152    2.721096-150    3.929360-148    3.418651-146    1.396515-144    1.618973-144
         2.163699-144    3.163075-144    4.925496-144   -3.338351-145    1.276439-146   -3.976544-148    1.179854-149   -3.535360-151    1.061723-152   -3.022914-154
         7.447593-156   -1.408068-157    1.769549-159   -1.250843-161    4.034259-164   -6.603506-167
  39     4.573379-169    5.677600-166    4.995637-163    2.554812-160    8.338991-158    1.796472-155    2.525703-153    2.149302-151    8.646448-150    1.074185-149
         1.527675-149    2.350714-149    3.805765-149   -2.754441-150    1.123709-151   -3.783105-153    1.245925-154   -4.311422-156    1.570634-157   -5.726070-159
         1.907334-160   -5.120168-162    9.488728-164   -1.013615-165    5.013345-168   -1.286139-170
  40     6.850356-174    8.095297-171    6.852954-168    3.392600-165    1.076064-162    2.258976-160    3.103618-158    2.590913-156    1.029121-154    1.374645-154
         2.083542-154    3.373018-154    5.664778-154   -4.339125-155    1.865421-156   -6.677957-158    2.393621-159   -9.357696-161    4.046626-162   -1.854213-163
         8.243669-165   -3.126442-166    8.558879-168   -1.385707-169    1.045424-171   -4.108167-174
  41     1.879088-178    2.137655-175    1.757886-172    8.490348-170    2.632890-167    5.411410-165    7.292055-163    5.989545-161    2.355211-159    3.396081-159
         5.496549-159    9.358704-159    1.627014-158   -1.308674-159    5.863703-161   -2.199443-162    8.419615-164   -3.635899-165    1.822863-166   -1.027677-167
         6.004471-169   -3.200294-170    1.303298-171   -3.246572-173    3.783719-175   -2.277501-177
  42     9.450257-183    1.045744-179    8.432160-177    4.004182-174    1.221448-171    2.469429-169    3.275746-167    2.655396-165    1.036592-163    1.621463-163
         2.808910-163    5.028612-163    9.030925-163   -7.574896-164    3.503507-165   -1.359097-166    5.459678-168   -2.545831-169    1.441827-170   -9.752211-172
         7.334728-173   -5.439447-174    3.322033-175   -1.306485-176    2.428690-178   -2.290061-180
  43     8.712447-187    9.470846-184    7.557659-181    3.556563-178    1.073938-175    2.146012-173    2.812787-171    2.257313-169    8.775314-168    1.498143-167
         2.785446-167    5.240745-167    9.700667-167   -8.431885-168    3.992561-169   -1.584105-170    6.574577-172   -3.238327-173    2.014322-174   -1.586313-175
         1.493614-176   -1.510222-177    1.385030-178   -8.888354-180    2.787601-181   -4.335744-183
  44     1.470665-190    1.585264-187    1.263708-184    5.942153-182    1.788073-179    3.549450-177    4.614391-175    3.678035-173    1.428986-171    2.683391-171
         5.371365-171    1.061124-170    2.018912-170   -1.807877-171    8.703032-173   -3.500202-174    1.481593-175   -7.556710-177    5.014563-178   -4.438943-179
         5.049290-180   -6.716732-181    9.061850-182   -9.748488-183    5.621389-184   -1.589523-185
  45     4.536214-194    4.891590-191    3.932275-188    1.863849-185    5.630283-183    1.116361-180    1.445176-178    1.147900-176    4.475854-175    9.341299-175
         2.019807-174    4.181628-174    8.149184-174   -7.474810-175    3.637121-176   -1.472740-177    6.295915-179   -3.271528-180    2.253356-181   -2.154681-182
         2.834376-183   -4.721952-184    8.783940-185   -1.539062-185    1.790994-186   -1.076317-187
  46     2.550302-197    2.773105-194    2.269096-191    1.094355-188    3.346221-186    6.668404-184    8.631910-182    6.854124-180    2.695206-178    6.345180-178
         1.486579-177    3.213442-177    6.384513-177   -5.963616-178    2.919162-179   -1.184500-180    5.080584-182   -2.658785-183    1.859135-184   -1.844459-185
         2.656635-186   -5.265404-187    1.222496-187   -2.763396-188    4.659074-189   -3.309866-191
  47     2.604851-200    2.874646-197    2.414731-194    1.196566-191    3.738987-189    7.545173-187    9.812134-185    7.810401-183    3.113049-181    8.462711-181
         2.151520-180    4.823053-180    9.709530-180   -9.180221-181    4.503532-182   -1.826038-183    7.829677-185   -4.099158-186    2.869111-187   -2.860722-188
         4.235871-189   -9.306932-190    2.706668-190   -7.800143-191    1.438124-191   -5.986565-195
  48     4.771381-203    5.365721-200    4.657148-197    2.393191-194    7.726385-192    1.594580-189    2.097140-187    1.678529-185    6.807440-184    2.229836-183
         6.128283-183    1.408034-182    2.850465-182   -2.711599-183    1.329506-184   -5.379864-186    2.302719-187   -1.202817-188    8.377042-190   -8.263336-191
         1.202002-191   -2.614583-192    8.082440-193   -2.710985-193    4.264071-194    1.002805-198
  49     1.352289-205    1.550588-202    1.394677-199    7.492108-197    2.533493-194    5.441849-192    7.370082-190    6.035184-188    2.516316-186    1.105024-185
         3.226691-185    7.465008-185    1.507850-184   -1.435582-185    7.024305-187   -2.836393-188    1.211914-189   -6.314631-191    4.374017-192   -4.260998-193
         6.030576-194   -1.242216-194    3.524404-195   -1.124432-195    1.774090-196    8.126319-201
  50    -1.520772-207   -1.749746-204   -1.596270-201   -8.696675-199   -2.944792-196   -6.107474-194   -7.390519-192   -4.475059-190   -6.957405-189    3.096372-189
         8.487054-189    1.919618-188    3.841107-188   -3.651379-189    1.779679-190   -7.189675-192    3.063132-193   -1.596200-194    1.099711-195   -1.064467-196
         1.476704-197   -2.926908-198    7.611629-199   -2.056127-199    2.464967-200     0.00000    
1
  CONCENTRATION IN LAYER   3 AT END OF TIME STEP   1 IN STRESS PERIOD    1
  ---------------------------------------------------------------------------

                1               2               3               4               5               6               7               8               9              10
               11              12              13              14              15              16              17              18              19              20
               21              22              23              24              25              26
 ................................................................................................................................................................................................................................................................................................................................................................................................................................
   1      0.00000        6.068314E-33    1.207318E-30   -4.639346E-29    7.957823E-28   -7.946781E-27    2.625245E-26    3.190486E-26    3.149580E-26    6.740730E-28
         1.292103E-30    1.188946E-31    1.342354E-33    2.204120E-36    1.821464E-39    1.132221E-42    7.774903E-46    1.023565E-48    1.879251E-51    2.871121E-54
         5.535043E-57    6.533639E-59    8.301339E-62    8.217623E-65    3.692564E-68    7.249341E-72
   2     2.191909E-33    3.197052E-30   -1.205453E-28   -5.983148E-26    1.497483E-24   -1.841021E-23    8.141744E-23    9.154599E-23    8.928694E-23    1.546377E-24
         2.626210E-27    3.993705E-28    3.369251E-30    4.632657E-33    3.110970E-36    1.466056E-39    8.018870E-43    9.720320E-46    5.278127E-49    3.180334E-52
         4.210784E-55    4.752629E-58    5.566039E-61    3.793023E-64    1.363146E-67    2.140033E-71
   3    -4.157845E-30   -5.265955E-29   -5.215691E-26    2.562411E-24    3.071886E-21   -7.189143E-20    5.636169E-19    5.758585E-19    5.544786E-19    6.111445E-21
         8.231118E-24    3.162101E-24    1.682770E-26    1.591335E-29    6.213081E-33    1.209942E-36    9.531171E-40    1.872704E-43    5.036017E-47    2.111011E-50
         6.776818E-54    4.587127E-57    2.501100E-60    9.759392E-64    2.188808E-67    2.205684E-71
   4     3.666248E-29    5.742010E-26    8.379536E-25    1.203843E-21   -1.016763E-19   -3.030465E-16    5.758601E-15    5.525302E-15    5.298300E-15    2.744710E-17
         3.953694E-20    3.861306E-20    1.226297E-22    6.011404E-26    3.928100E-30    2.311944E-33    1.624084E-37    2.396811E-41    3.630903E-45    4.691863E-49
         1.153758E-52    2.871890E-56    7.664848E-60    1.568090E-63    1.980427E-67    1.155058E-71
   5    -4.716651E-27   -3.637083E-25   -1.160958E-21   -2.783222E-20   -6.680126E-17    1.024716E-14    7.246741E-11    6.762903E-11    6.528028E-11    1.288028E-15
         7.173929E-16    7.107198E-16    1.013463E-18    2.396068E-23    1.419081E-26    3.413475E-31    3.354476E-35    1.867948E-39    1.236968E-43    1.273255E-47
         1.112986E-51    1.351614E-55    1.734996E-59    1.785578E-63    1.196985E-67    3.770978E-72
   6     5.787239E-27    8.734874E-23    1.074860E-20    5.911312E-17    2.550138E-15    1.048084E-11   -2.825339E-09   -2.485358E-09   -2.317569E-09    1.945600E-11
         1.714694E-11    1.701314E-11    1.606331E-16    2.009120E-19    1.548763E-24    1.343802E-28    2.628992E-33    1.135965E-37    4.972856E-42    1.712473E-46
         7.930545E-51    4.747754E-55    2.921442E-59    1.481837E-63    5.080493E-68    8.214217E-73
   7     7.429244E-28   -9.575506E-23   -6.674848E-18   -9.795815E-16   -8.659822E-12   -6.745966E-10    1.182139E-08    1.004438E-08    9.402729E-09   -5.991600E-10
        -5.989297E-10   -5.892724E-10    4.719022E-12    9.372880E-18    1.460432E-21    8.853597E-27    3.404717E-31    5.898998E-36    8.753766E-41    1.655612E-45
         4.117818E-50    1.219931E-54    3.616009E-59    8.952866E-64    1.532097E-68    1.218710E-73
   8    -9.158577E-28   -3.317368E-23    5.122746E-18    1.330775E-12    2.611929E-10    4.553917E-09    1.681331E-11    1.465957E-10    2.283557E-10   -7.458734E-10
         2.442967E-09    2.404061E-09   -1.628513E-10    3.786488E-14    5.044306E-20    3.139370E-24    1.859442E-29    1.196442E-34    9.944609E-40    1.082001E-44
         1.457003E-49    2.188022E-54    3.187105E-59    3.866222E-64    3.261265E-69    1.225544E-74
   9    -5.872519E-29    1.330410E-23    3.040224E-18    3.439824E-13    8.289161E-11    2.724257E-09    2.118615E-08    1.683866E-08    1.508920E-08    1.408133E-08
         8.052328E-10    8.829471E-10    6.468244E-10   -1.126425E-12    8.400772E-17    1.378408E-22    2.824491E-28    8.117398E-34    3.239205E-39    1.705898E-44
         1.092741E-49    7.612492E-55    4.994782E-60    2.560048E-65    7.372234E-71   -1.493636E-76
  10     1.557448E-29    2.538886E-24    3.572434E-19    8.519422E-14    2.343668E-11    8.172035E-10    6.858327E-09    5.384187E-09    4.743246E-09    5.431576E-09
         3.122792E-10    4.324625E-10    2.477674E-10   -4.180260E-13    3.833465E-17    3.488492E-23    3.714636E-29    4.844406E-35    6.166249E-41   -4.631121E-47
        -1.494455E-51   -1.452333E-56   -1.115796E-61   -6.696934E-67   -2.685325E-72   -6.721048E-78
  11     1.085340E-30    1.305275E-25    4.055212E-20    2.063323E-14    7.433926E-12    5.375086E-10    9.758642E-09    6.967984E-09    5.947247E-09    1.443041E-09
         5.417822E-10    1.357254E-10    6.749081E-11   -1.458055E-13    1.629038E-17    8.453653E-24    5.002996E-30    3.540889E-36    2.643980E-42    1.572895E-48
         4.282348E-54    6.901879E-59    6.877238E-64    4.701577E-69    2.087357E-74    7.623595E-80
  12     2.388700E-32    6.601495E-27    4.545822E-21    4.932391E-15    1.996081E-12    1.571736E-10    3.735916E-09    4.874210E-09    4.021015E-09    3.700406E-10
         1.959335E-10    3.706890E-11    1.835705E-11   -4.926120E-14    6.566306E-18    1.932469E-24    6.288107E-31    2.350020E-37    8.698102E-44    1.606462E-50
        -1.758550E-56   -1.007348E-61   -1.403975E-66   -1.212520E-71   -6.076725E-77   -2.610970E-82
  13     5.285943E-34    3.353013E-28    5.078231E-22    1.170862E-15    5.282844E-13    4.421651E-11    1.082306E-09    1.712780E-09    1.400544E-09    1.020933E-10
         5.431315E-11    1.013311E-11    4.999231E-12   -1.619649E-14    2.530788E-18    4.202472E-25    7.472370E-32    1.469213E-38    2.728408E-45    2.237883E-52
        -6.560398E-59    1.470653E-64    9.964200E-70    1.140748E-74    7.138515E-80    3.559493E-85
  14     1.198221E-35    1.721236E-29    5.684024E-23    2.770870E-16    1.384235E-13    1.234439E-11    3.148897E-10    1.650549E-10    1.410638E-10    3.414882E-11
         1.504114E-11    2.774915E-12    1.363198E-12   -5.202155E-15    9.383235E-19    8.751743E-26    8.466043E-33    8.735989E-40    8.150065E-47    2.873106E-54
        -4.993720E-61    2.193316E-67   -6.300950E-73   -3.927048E-78   -3.187052E-83   -2.000332E-88
  15     2.789557E-37    8.957278E-31    6.394452E-24    6.553600E-17    3.095089E-14    1.247753E-12    2.595652E-11    9.216206E-12    7.514509E-12    6.280772E-12
         4.391168E-12    7.608219E-13    3.721861E-13   -1.637459E-15    3.362705E-19    1.754490E-26    9.204693E-34    4.978388E-41    2.337994E-48    3.542801E-56
        -3.322712E-63    8.682914E-70   -4.121360E-76    1.151753E-81    5.330538E-87    4.314447E-92
  16     6.676609E-39    4.768417E-32    7.447849E-25    1.551605E-17    8.162611E-15    3.415690E-13    5.555104E-13    8.202643E-13    6.737078E-13    5.789192E-13
         5.142877E-13    2.173107E-13    1.017337E-13   -5.064536E-16    1.169438E-19    3.400294E-27    9.653502E-35    2.735503E-42    6.482498E-50    4.217261E-58
        -2.111620E-65    2.899895E-72   -8.243643E-79    3.493459E-85   -7.461864E-91   -3.507328E-96
  17     1.650984E-40    2.528666E-33    5.979943E-26    5.674839E-23    7.565827E-17    2.701114E-14    9.266905E-14    1.108015E-13    8.979307E-14    7.665755E-14
         6.798967E-14    5.998304E-14    2.783853E-14   -1.542661E-16    3.959640E-20    6.393140E-28    9.806392E-36    1.456308E-43    1.746203E-51    4.869770E-60
        -1.290043E-67    9.243823E-75   -1.364593E-81    3.474713E-88   -1.081325E-94    2.387603-100
  18     3.944296E-42    8.264056E-35    1.526937E-31    1.536224E-25    1.031506E-22    7.838344E-17    5.858880E-15    2.032172E-14    1.577187E-14    1.341453E-14
         1.189299E-14    1.704376E-14    7.621262E-15   -4.636581E-17    1.309395E-20    1.169979E-28    9.686085E-37    7.546023E-45    4.595149E-53    5.553061E-62
        -7.530071E-70    2.843638E-77   -2.156900E-84    2.836087E-91   -5.305801E-98    1.691229-104
  19     5.581246E-44    1.366967E-40    1.344138E-34    1.591642E-31    7.719126E-26    2.865568E-23    1.671566E-17    1.295535E-15    3.663885E-15    3.045196E-15
         2.669376E-15    3.078290E-15    2.208754E-15   -1.393399E-17    4.240927E-21    2.079140E-29    9.247045E-38    3.765970E-46    1.152781E-54    4.160120E-64
        -5.699554E-72    7.438034E-80   -3.356635E-87    2.211422E-94   -2.132474-101    4.067022-108
  20     5.665137E-50    4.177481E-44    9.537379E-41    3.682108E-35    2.733742E-32    7.576760E-27    2.831476E-24    3.634768E-18    2.810156E-16    2.376725E-16
         2.075764E-16    1.881077E-16    1.711835E-16   -1.010034E-19    9.829438E-28   -2.673792E-31   -2.041147E-39   -1.189316E-47   -6.209030E-56   -2.800185E-64
        -9.256646E-73   -2.462338E-81   -1.193558E-89    1.542955E-97   -8.247686-105    8.052236-112
  21     6.316474E-54    1.900114E-50    7.446090E-45    1.004012E-41    1.811336E-36    1.255979E-33    7.323126E-28    2.856485E-25    6.977573E-19    5.912007E-19
         5.162260E-19    4.634548E-19    4.256224E-19   -1.146510E-26    3.908661E-30   -3.955412E-38    9.138199E-42    8.563011E-50    5.727813E-58    3.303888E-66
         1.619144E-74    5.993005E-83    1.688606E-91    5.324399-100   -2.499131-108    1.557078-115
  22     1.755641E-60    5.318834E-55    1.398985E-51    2.056076E-46    2.336807E-43    8.311287E-38    5.712245E-35    6.119493E-29    2.193986E-26    1.704328E-26
         1.388755E-26    1.179706E-26    1.035963E-26   -1.105193E-29    3.285664E-37   -7.721067E-41    8.833724E-49   -1.762872E-52   -1.860232E-60   -1.336785E-68
        -7.934355E-77   -3.838081E-85   -1.348880E-93   -3.308951-102   -7.011336-111    2.283025-119
  23     1.849084E-65    6.445250E-62    9.814188E-57    1.853351E-53    4.871702E-48    5.113105E-45    3.199848E-39    2.109527E-36    3.629460E-34    2.587763E-34
         1.968139E-34    1.581145E-34    1.326747E-34   -2.923905E-37    1.426149E-40   -4.700849E-48    8.844333E-52   -1.174902E-59    2.115370E-63    2.410386E-71
         1.781946E-79    1.032836E-87    4.594164E-96    1.375283-104    2.494060-113    4.619042-122
  24     1.389341E-72    1.669709E-67    5.832299E-64    1.352574E-58    2.143587E-55    9.348575E-50    9.186155E-47    2.942752E-44    3.256795E-42    2.141299E-42
         1.526493E-42    1.164252E-42    9.371932E-43   -3.276891E-45    3.491840E-48   -1.190065E-51    4.512101E-59   -7.899804E-63    1.212744E-70   -2.112682E-74
        -2.567285E-82   -1.903638E-90   -1.031560E-98   -3.924598-107   -8.796442-116   -1.409177-124
  25     1.445201E-78    6.457878E-75    1.641971E-69    4.140409E-66    1.467164E-60    2.071201E-57    1.003823E-54    2.102723E-52    1.699373E-50    1.045644E-50
         7.093443E-51    5.216548E-51    4.094758E-51   -2.148192E-53    4.074881E-56   -3.421893E-59    1.092820E-62   -4.953912E-70    9.103115E-74   -1.565657E-81
         2.790124E-85    3.588609E-93    2.589886-101    1.234309-109    3.579898-118    6.869498-127
  26     3.899413E-86    8.226007E-81    3.735905E-77    1.268694E-71    2.647249E-68    1.886775E-65    6.147954E-63    9.717483E-61    6.281268E-59    3.745976E-59
         2.504755E-59    1.839570E-59    1.458686E-59   -1.161021E-61    3.757621E-64   -6.242149E-67    5.299198E-70   -1.815472E-73    9.774602E-81   -1.950576E-84
         3.512335E-92   -6.483520E-96   -8.694782-104   -5.837550-112   -2.211595-120   -5.401029-129
  27     2.955515E-92    1.734837E-88    6.910022E-83    2.287336E-79    2.483446E-76    1.234624E-73    3.169477E-71    4.208936E-69    2.364348E-67    1.429995E-67
         9.833709E-68    7.503294E-68    6.235229E-68   -7.347677E-70    3.811731E-72   -1.112980E-74    1.895520E-77   -1.738188E-80    6.503864E-84   -3.996481E-91
         8.593566E-95   -1.439559-102    2.798402-106    3.860626-114    2.265610-122    7.497059-131
  28     7.818598-100    2.913937E-94    1.712262E-90    3.001463E-87    2.326203E-84    9.367483E-82    2.085988E-79    2.498266E-77    1.290674E-75    8.153194E-76
         5.912232E-76    4.787184E-76    4.244339E-76   -6.945480E-78    5.301295E-80   -2.442131E-82    7.174190E-85   -1.298168E-87    1.285668E-90   -5.150806E-94
         3.379370-101   -7.751970-105    9.326972-113   -2.135727-116   -2.934444-124   -1.696345-132
  29     1.597201-105    1.318052-101    4.081181E-98    5.090244E-95    3.192526E-92    1.117749E-89    2.260076E-87    2.521614E-85    1.229686E-83    8.204081E-84
         6.325922E-84    5.468658E-84    5.193796E-84   -1.110745E-85    1.157589E-87   -7.694469E-90    3.493083E-92   -1.068604E-94    2.052529E-97   -2.149074-100
         8.902590-104   -5.518891-111    1.372929-114   -3.309613-123    2.551040-126    4.079151-134
  30     1.472828-112    6.462569-109    1.405606-105    1.400141-102    7.540812-100    2.374206E-97    4.449249E-95    4.688713E-93    2.183304E-91    1.543431E-91
         1.267449E-91    1.169930E-91    1.188673E-91   -3.172293E-93    4.269301E-95   -3.832563E-97    2.482925E-99   -1.159858-101    3.717696-104   -7.451413-107
         7.976933-110   -3.258697-113    1.435971-120   -4.434589-124   -5.228252-132   -5.606182-136
[...]
        -1.939485E-13   -1.345769E-14   -7.148389E-16   -2.323107E-17   -7.684524E-19   -1.156093E-20
  10    -4.608604E-13   -5.227341E-11   -6.022522E-10    1.056963E-06    1.238474E-04    3.899622E-03    2.945850E-02    3.744546E-02    3.808331E-02    4.031864E-02
         9.972225E-03    5.905431E-03    2.581200E-03    3.827305E-04    3.945600E-05    3.233512E-06    2.245562E-07    1.368297E-08    7.435998E-10    3.605133E-11
         1.545025E-12    5.738698E-14    1.779200E-15    3.723475E-17    3.701964E-19    3.614966E-22
  11    -1.412109E-13    6.034119E-11    2.348914E-08    3.900871E-06    2.965471E-04    9.389233E-03    0.114008        0.123673        0.124698        0.122805    
         3.359032E-02    1.543615E-02    7.926809E-03    1.362441E-03    1.516917E-04    1.291133E-05    9.064715E-07    5.442227E-08    2.810971E-09    1.223817E-10
         4.483908E-12    1.363729E-13    3.265516E-15    5.425142E-17    5.801346E-19    2.867018E-21
  12     1.378274E-12    3.731497E-10    6.702460E-08    7.701726E-06    5.163546E-04    1.860946E-02    0.333656        0.400758        0.404994        0.256756    
         8.006708E-02    3.067528E-02    1.541708E-02    2.728467E-03    2.981157E-04    2.357146E-05    1.460386E-06    7.426719E-08    3.168630E-09    1.155481E-10
         3.359955E-12    7.523828E-14    1.298812E-15    1.619394E-17    2.222224E-19    1.320917E-21
  13     2.784645E-12    5.722244E-10    8.867645E-08    9.754428E-06    7.134158E-04    3.137372E-02    0.712446         1.15805         1.18984        0.461361    
         0.147842        4.680744E-02    1.979608E-02    3.216364E-03    3.214543E-04    2.331924E-05    1.292772E-06    5.466643E-08    1.761846E-09    4.162776E-11
         7.079452E-13    9.380946E-15    1.077512E-16    3.890701E-18    6.217556E-20    4.045660E-22
  14     2.779078E-12    5.549851E-10    8.601804E-08    9.770577E-06    8.010209E-04    4.291322E-02     1.13478         1.91397         1.97441        0.581107    
         0.184511        5.123316E-02    1.987436E-02    3.079116E-03    2.822226E-04    1.708303E-05    6.832635E-07    1.753088E-08    2.791329E-10    2.711371E-12
         1.522605E-14   -1.853016E-17    1.812302E-17    8.306173E-19    1.419828E-20    9.739436E-23
  15     2.154176E-12    4.331126E-10    7.063105E-08    8.774633E-06    7.818566E-04    4.381950E-02     1.16238         1.86093         1.92119        0.547456    
         0.180487        4.932812E-02    1.860346E-02    2.585450E-03    1.957730E-04    8.688899E-06    2.179345E-07    2.790350E-09    2.105866E-11    1.765192E-13
         1.177077E-15   -2.889442E-17    2.616150E-18    1.451928E-19    2.677784E-21    1.935138E-23
  16     1.199642E-12    2.632764E-10    4.828017E-08    6.793555E-06    6.729041E-04    3.916372E-02    0.975915         1.35342         1.39519        0.395913    
         0.153243        4.230802E-02    1.593834E-02    1.951398E-03    1.232070E-04    4.502133E-06    1.035952E-07    1.836852E-09    3.392875E-11    5.845068E-13
         7.248448E-15    4.877211E-17    4.814653E-19    2.010456E-20    4.131443E-22    3.201467E-24
  17     5.635554E-13    1.420291E-10    2.941365E-08    4.525129E-06    4.687685E-04    2.674707E-02    0.543340        0.565156        0.577382        0.190723    
         0.104755        3.171231E-02    1.308379E-02    1.466456E-03    8.484090E-05    3.038047E-06    7.699212E-08    1.591401E-09    2.909171E-11    3.912669E-13
         3.350990E-15    1.261927E-17    2.487703E-20    1.385377E-21    4.657957E-23    4.220352E-25
  18     2.551112E-13    7.053083E-11    1.549170E-08    2.421615E-06    2.413856E-04    1.225673E-02    0.159660        0.119302        0.115082        6.095044E-02
         5.341659E-02    2.289852E-02    1.079352E-02    1.134111E-03    6.167423E-05    2.106145E-06    4.960548E-08    8.394177E-10    9.686286E-12    6.720339E-14
         2.694941E-16    1.537783E-18   -1.956656E-20   -3.103391E-22    1.599822E-24    3.640958E-26
  19     9.808003E-14    2.761016E-11    6.010054E-09    8.893932E-07    7.917340E-05    3.272361E-03    2.099485E-02    1.936112E-02    1.983947E-02    1.925234E-02
         2.191859E-02    1.723164E-02    9.231869E-03    9.258453E-04    4.846241E-05    1.618926E-06    3.802971E-08    6.837443E-10    1.030769E-11    1.290239E-13
         1.251754E-15    9.679793E-18    5.044644E-20    1.162737E-22   -4.212201E-26    1.069858E-27
  20     2.560253E-14    6.900289E-12    1.407687E-09    1.849717E-07    1.373128E-05    4.329046E-04    1.360581E-03    4.319070E-03    7.486168E-03    8.348743E-03
         9.150966E-03    1.154904E-02    7.115800E-03    6.665718E-04    3.180884E-05    9.546474E-07    2.031247E-08    3.499702E-10    5.112286E-12    5.723537E-14
         4.687163E-16    3.570430E-18    2.913149E-20    1.341022E-22    3.214874E-25    3.274333E-28
  21     3.825495E-15    9.474454E-13    1.731942E-10    1.908548E-08    1.113603E-06    2.599743E-05    6.784857E-05    9.398894E-04    3.263851E-03    3.554453E-03
         3.567497E-03    5.443891E-03    4.078687E-03    3.201467E-04    1.187307E-05    2.628628E-07    4.185441E-09    5.755598E-11    6.465603E-13    5.455693E-15
         5.356286E-17    1.030102E-18    9.825714E-21    5.622963E-23    1.957221E-25    3.702916E-28
  22     3.129556E-16    7.048968E-14    1.118186E-11    9.958419E-10    4.461441E-08    8.024116E-07    3.782400E-06    1.221888E-04    9.296629E-04    9.803157E-04
         9.259614E-04    1.344848E-03    1.321773E-03    7.017510E-05    1.531915E-06    1.773460E-08    1.386490E-10    6.125860E-13   -1.184606E-14   -3.659098E-16
         6.225062E-18    1.961004E-19    2.278667E-21    1.573106E-23    6.842966E-26    1.705673E-28
  23     7.366684E-17    3.169186E-15    4.331533E-13    3.110625E-11    1.106676E-09    1.754945E-08    2.131715E-07    7.752211E-06    1.188770E-04    1.236686E-04
         1.140255E-04    1.345398E-04    1.789759E-04    4.494252E-06    2.269681E-08   -6.144339E-10   -2.906805E-11   -7.989616E-13   -1.644941E-14   -2.115138E-16
        -5.364045E-19    2.349990E-20    4.034011E-22    3.497110E-24    1.855085E-26    5.552570E-29
  24     1.841629E-17    1.301896E-16    1.188969E-14    7.096873E-13    2.158441E-11    3.744146E-10    9.431731E-09    2.826435E-07    5.813379E-06    6.051517E-06
         5.623400E-06    5.164763E-06    8.709939E-06   -9.333515E-09   -7.004318E-09   -4.515752E-10   -1.380746E-11   -2.684215E-13   -3.390884E-15   -3.767704E-17
        -3.240406E-19    1.384612E-21    6.095611E-23    6.995643E-25    4.461388E-27    1.525107E-29
  25     4.191381E-18    3.658147E-17    2.582736E-16    1.348864E-14    3.865211E-13    8.872846E-12    3.016468E-10    7.667722E-09    1.301191E-07    1.352406E-07
         1.282154E-07    9.963295E-08    1.849782E-07   -2.822823E-08   -2.973466E-09   -8.810217E-11   -1.306514E-12   -1.114604E-14   -3.209005E-17   -5.075873E-18
        -7.082369E-20   -5.083805E-23    9.788598E-24    1.425071E-25    1.033992E-27    3.826374E-30
  26     8.724643E-19    9.625784E-18    5.534221E-17    2.305756E-16    6.832253E-15    2.156768E-13    7.477595E-12    1.641673E-10    1.925489E-09    1.976993E-09
         1.897510E-09    1.378320E-09    2.620360E-09   -7.532331E-09   -2.558724E-10   -2.010587E-12    1.157880E-14    8.421360E-16    1.469165E-17   -4.425587E-19
        -8.242627E-21    2.156387E-23    2.183539E-24    3.186507E-26    2.390782E-28    9.056100E-31
  27     1.651863E-19    2.233378E-18    1.313572E-17    4.935406E-17    1.416606E-16    4.793381E-15    1.534696E-13    2.788156E-12    2.351940E-11    2.366021E-11
         2.278755E-11    1.603936E-11    2.992261E-11   -3.609030E-10   -1.272319E-12    1.509113E-13    9.576135E-15    2.655348E-16    5.993526E-18    4.197668E-20
         4.981560E-22    2.607684E-23    6.073053E-25    7.555693E-27    5.449852E-29    2.028704E-31
  28     2.860452E-20    4.584864E-19    3.060550E-18    1.180655E-17    3.615154E-17    1.187024E-16    2.605038E-15    3.784546E-14    2.321474E-13    2.251724E-13
         2.172311E-13    1.388876E-13    1.993932E-13   -4.589214E-12    4.559747E-13    4.808525E-14    1.159141E-15    4.827322E-17    1.680707E-18    3.111398E-20
         5.455953E-22    1.038330E-23    1.622114E-25    1.743355E-27    1.183960E-29    4.252365E-32
  29     4.565806E-21    8.469554E-20    6.505769E-19    2.746809E-18    9.311444E-18    3.155687E-17    6.953889E-17    3.696284E-16    9.144389E-16    6.729878E-16
         6.472572E-16   -8.317941E-17   -1.058354E-15   -3.620755E-14    9.153045E-14    2.244615E-15    2.343179E-17    8.136610E-18    3.621621E-19    8.804486E-21
         1.680112E-22    2.786034E-24    3.745076E-26    3.669098E-28    2.367848E-30    8.187264E-33
  30     6.764731E-22    1.426046E-20    1.243739E-19    5.787907E-19    2.163720E-18    8.135257E-18    2.090785E-17    3.929956E-17   -4.519895E-17   -6.880330E-17
        -7.275267E-17   -1.134016E-16   -2.863659E-16   -2.372633E-16    2.390916E-15   -8.449777E-19    2.938635E-18    1.234806E-18    6.407694E-20    1.782869E-21
         3.583161E-23    5.743809E-25    7.250417E-27    6.743724E-29    4.205829E-31    1.407123E-33
  31     9.356181E-23    2.207066E-21    2.150918E-20    1.093494E-19    4.434889E-19    1.851434E-18    5.335687E-18    9.364917E-18   -1.662638E-17   -2.549209E-17
        -2.755126E-17   -3.834432E-17   -6.909668E-17   -3.209636E-17    3.948530E-17   -2.839089E-18   -3.978703E-20    1.487440E-19    9.081884E-21    2.774645E-22
         5.795259E-24    9.208793E-26    1.127423E-27    1.018201E-29    6.227714E-32    2.027342E-34
  32     1.213556E-23    3.158891E-22    3.395864E-21    1.867838E-20    8.123059E-20    3.705764E-19    1.157615E-18    1.952571E-18   -5.116603E-18   -7.646551E-18
        -8.380438E-18   -1.058115E-17   -1.649546E-17   -6.076595E-18    8.806762E-18   -1.092732E-18   -1.480954E-19    1.022259E-20    9.045830E-22    3.048239E-23
         6.490262E-25    1.004595E-26    1.176868E-28    1.023918E-30    6.164593E-33    1.937191E-35
  33     1.481749E-24    4.201436E-23    4.932975E-22    2.914364E-21    1.350493E-20    6.649650E-20    2.225019E-19    3.780095E-19   -1.318782E-18   -1.945204E-18
        -2.158853E-18   -2.595229E-18   -3.786472E-18   -1.277607E-18    1.636282E-18   -2.984663E-19   -5.015392E-20   -1.104182E-21    1.293150E-23    8.554818E-25
         1.277951E-26    6.241610E-30   -2.547895E-30   -4.079419E-32   -2.939962E-34   -1.158355E-36
  34     1.708396E-25    5.214007E-24    6.632644E-23    4.187725E-22    2.061346E-21    1.087182E-20    3.884424E-20    6.641334E-20   -2.950413E-19   -4.337980E-19
        -4.870701E-19   -5.697139E-19   -8.074750E-19   -2.579895E-19    2.651475E-19   -6.520720E-20   -1.196395E-20   -6.268645E-22   -2.224176E-23   -6.930468E-25
        -1.849785E-26   -3.835848E-28   -5.787017E-30   -6.011534E-32   -3.945216E-34   -1.352055E-36
  35     1.864556E-26    6.057795E-25    8.291213E-24    5.574640E-23    2.910615E-22    1.636563E-21    6.229796E-21    1.055414E-20   -5.838298E-20   -8.605881E-20
        -9.775859E-20   -1.122946E-19   -1.574783E-19   -4.834778E-20    3.956664E-20   -1.224626E-20   -2.385752E-21   -1.622049E-22   -7.301320E-24   -2.526800E-25
        -6.806578E-27   -1.393597E-28   -2.097612E-30   -2.209300E-32   -1.490343E-34   -5.153953E-37
  36     1.929902E-27    6.606361E-26    9.668268E-25    6.904331E-24    3.821714E-23    2.283507E-22    9.232519E-22    1.529598E-21   -1.034236E-20   -1.535011E-20
        -1.765931E-20   -2.002768E-20   -2.805868E-20   -8.419445E-21    5.554520E-21   -2.056850E-21   -4.215537E-22   -3.290575E-23   -1.656740E-24   -6.135218E-26
        -1.722678E-27   -3.651562E-29   -5.707212E-31   -6.275997E-33   -4.435988E-35   -1.583057E-37
  37     1.896603E-28    6.774942E-27    1.054193E-25    7.980924E-25    4.684385E-24    2.967421E-23    1.269976E-22    2.041488E-22   -1.657806E-21   -2.487765E-21
        -2.903639E-21   -3.265134E-21   -4.595230E-21   -1.372003E-21    7.372206E-22   -3.160893E-22   -6.789326E-23   -5.818534E-24   -3.171864E-25   -1.248804E-26
        -3.694586E-28   -8.249069E-30   -1.363929E-31   -1.594997E-33   -1.201936E-35   -4.513998E-38
  38     1.770452E-29    6.539744E-28    1.076438E-26    8.629241E-26    5.376124E-25    3.604832E-24    1.628083E-23    2.528247E-23   -2.429230E-22   -3.701791E-22
        -4.393535E-22   -4.918340E-22   -6.977351E-22   -2.106029E-22    9.263585E-23   -4.510133E-23   -1.013560E-23   -9.347350E-25   -5.450486E-26   -2.280165E-27
        -7.162017E-29   -1.705464E-30   -3.030276E-32   -3.838123E-34   -3.146854E-36   -1.273328E-38
  39     1.569170E-30    5.941910E-29    1.029904E-27    8.738963E-27    5.790090E-26    4.106036E-25    1.952357E-24    2.918770E-24   -3.285233E-23   -5.107473E-23
        -6.181088E-23   -6.916155E-23   -9.912882E-23   -3.063371E-23    1.103906E-23   -6.038322E-24   -1.418495E-24   -1.393320E-25   -8.644032E-27   -3.847407E-28
        -1.291980E-29   -3.320013E-31   -6.444259E-33   -9.030673E-35   -8.266852E-37   -3.718000E-39
  40     1.318542E-31    5.075882E-30    9.228011E-29    8.292379E-28    5.860493E-27    4.395223E-26    2.196618E-25    3.146451E-25   -4.136314E-24   -6.594599E-24
        -8.163604E-24   -9.167868E-24   -1.329674E-23   -4.246698E-24    1.250123E-24   -7.648635E-25   -1.876212E-25   -1.950626E-26   -1.283736E-27   -6.090038E-29
        -2.201139E-30   -6.178532E-32   -1.334605E-33   -2.123692E-35   -2.245630E-37   -1.171975E-39
  41     1.047476E-32    4.066541E-31    7.728780E-30    7.367246E-29    5.577616E-28    4.427808E-27    2.323853E-26    3.162952E-26   -4.887452E-25   -8.037680E-25
        -1.021542E-24   -1.156313E-24   -1.698726E-24   -5.643255E-25    1.347760E-25   -9.229825E-26   -2.359482E-26   -2.583504E-27   -1.798943E-28   -9.107549E-30
        -3.564796E-31   -1.106718E-32   -2.716362E-34   -5.066243E-36   -6.471800E-38   -4.163817E-40
  42     7.831661E-34    3.042238E-32    6.029308E-31    6.115173E-30    4.988443E-29    4.199869E-28    2.314383E-27    2.949026E-27   -5.460576E-26   -9.326773E-26
        -1.222238E-25   -1.400552E-25   -2.084978E-25   -7.231608E-26    1.384761E-26   -1.067500E-26   -2.833892E-27   -3.250421E-28   -2.386073E-29   -1.288748E-30
        -5.487496E-32   -1.906358E-33   -5.435540E-35   -1.233127E-36   -2.015610E-38   -1.739393E-40
  43     5.472846E-35    2.110951E-33    4.356011E-32    4.723625E-31    4.183669E-30    3.747360E-29    2.169706E-28    2.518675E-28   -5.811642E-27   -1.039534E-26
        -1.411779E-26   -1.644835E-26   -2.480602E-26   -8.993220E-27    1.356111E-27   -1.189840E-27   -3.261755E-28   -3.891918E-29   -2.994484E-30   -1.719877E-31
        -7.975554E-33   -3.126429E-34   -1.056734E-35   -3.032996E-37   -6.797019E-39   -8.817715E-41
  44     3.537636E-36    1.344742E-34    2.889253E-33    3.373673E-32    3.275864E-31    3.136087E-30    1.911040E-29    1.915047E-29   -5.937941E-28   -1.123997E-27
        -1.591542E-27   -1.892972E-27   -2.888271E-27   -1.092723E-27    1.264610E-28   -1.284643E-28   -3.606966E-29   -4.435597E-30   -3.544699E-31   -2.148122E-32
        -1.079454E-33   -4.777921E-35   -1.937318E-36   -7.272994E-38   -2.403951E-39   -5.420158E-41
  45     2.082625E-37    7.745641E-36    1.736562E-34    2.205176E-33    2.375604E-32    2.446170E-31    1.573380E-30    1.199428E-30   -5.875201E-29   -1.193332E-28
        -1.774324E-28   -2.161039E-28   -3.325808E-28   -1.306580E-28    1.120705E-29   -1.350063E-29   -3.840088E-30   -4.807223E-31   -3.937786E-32   -2.482867E-33
        -1.332504E-34   -6.569567E-36   -3.170378E-37   -1.572856E-38   -8.114806E-40   -3.736242E-41
  46     1.090745E-38    3.943398E-37    9.272613E-36    1.297351E-34    1.572161E-33    1.756135E-32    1.197355E-31    4.373047E-32   -5.687288E-30   -1.264146E-29
        -1.989653E-29   -2.482857E-29   -3.831106E-29   -1.548554E-29    9.421293E-31   -1.387149E-30   -3.942564E-31   -4.947445E-32   -4.081627E-33   -2.621668E-34
        -1.462706E-35   -7.750637E-37   -4.250082E-38   -2.653245E-39   -2.121556E-40   -3.121832E-41
  47     4.901400E-40    1.714067E-38    4.260969E-37    6.672827E-36    9.232088E-35    1.131439E-33    8.220071E-33   -3.121254E-33   -5.451836E-31   -1.367881E-30
        -2.296131E-30   -2.920062E-30   -4.467829E-30   -1.830592E-30    7.547361E-32   -1.398428E-31   -3.908825E-32   -4.829483E-33   -3.928929E-34   -2.501791E-35
        -1.396213E-36   -7.485570E-38   -4.195220E-39   -2.662838E-40   -2.001362E-41   -1.280201E-42
  48     1.781019E-41    6.004814E-40    1.591319E-38    2.835988E-37    4.544802E-36    6.203865E-35    4.816441E-34   -9.903678E-34   -5.238944E-32   -1.570249E-31
        -2.814468E-31   -3.580992E-31   -5.329848E-31   -2.165370E-31    5.956355E-33   -1.386076E-32   -3.745610E-33   -4.469440E-34   -3.505072E-35   -2.148169E-36
        -1.149958E-37   -5.855353E-39   -3.034562E-40   -1.666369E-41   -9.152019E-43   -3.153330E-44
  49     4.647962E-43    1.503509E-41    4.267612E-40    8.794019E-39    1.655035E-37    2.564617E-36    2.094661E-35   -1.465744E-34   -5.037247E-33   -2.046988E-32
        -3.821242E-32   -4.646317E-32   -6.530810E-32   -2.555621E-32    5.164535E-34   -1.350558E-33   -3.469531E-34   -3.922999E-35   -2.901499E-36   -1.664127E-37
        -8.220931E-39   -3.762544E-40   -1.664475E-41   -7.003680E-43   -2.293778E-44   -2.627500E-46
  50     8.467558E-45    2.565625E-43    7.737509E-42    1.868766E-40    4.075986E-39    6.685873E-38    3.319488E-37   -1.835241E-35   -4.794161E-34   -4.980933E-33
        -7.041624E-33   -7.287424E-33   -9.242063E-33   -3.351512E-33    5.768062E-35   -1.421494E-34   -3.399188E-35   -3.558869E-36   -2.420926E-37   -1.260729E-38
        -5.527948E-40   -2.158513E-41   -7.579314E-43   -2.178739E-44   -3.114097E-46     0.00000    

 CONCENTRATION WILL BE SAVED ON UNIT 1027 AT END OF TIME STEP  364, STRESS PERIOD    2


  MASS BUDGET FOR ENTIRE MODEL AT END OF TIME STEP  364, STRESS PERIOD   2
  ---------------------------------------------------------------------------------------------------

     CUMULATIVE MASS      M       RATES FOR THIS TIME STEP      M/T          PACKAGE NAME    
     ------------------                 ------------------------                     ----------------

           IN:                                      IN:
           ---                                      ---
     STORAGE-AQUEOUS =   408343938.4946       STORAGE-AQUEOUS =          11.2640     MST                              
                 CHD =           0.0000                   CHD =           0.0000     SSM_CHD-1                        

            TOTAL IN =   408343938.4946              TOTAL IN =          11.2640

          OUT:                                     OUT:
          ----                                     ----
     STORAGE-AQUEOUS =   408343938.4946       STORAGE-AQUEOUS =          11.2640     MST                              
                 CHD =       8.4547E-31                   CHD =       8.8894E-37     SSM_CHD-1                        

           TOTAL OUT =   408343938.4946             TOTAL OUT =          11.2640

            IN - OUT =           0.0000              IN - OUT =       1.7231E-13

 PERCENT DISCREPANCY =           0.00     PERCENT DISCREPANCY =           0.00




         TIME SUMMARY AT END OF TIME STEP  364 IN STRESS PERIOD    2
                    SECONDS     MINUTES      HOURS       DAYS        YEARS
                    -----------------------------------------------------------
   TIME STEP LENGTH  86400.      1440.0      24.000      1.0000     2.73785E-03
 STRESS PERIOD TIME 3.14496E+07 5.24160E+05  8736.0      364.00     0.99658    
         TOTAL TIME 3.14582E+07 5.24304E+05  8738.4      364.10     0.99685    


end timestep

