                                   MODFLOW 6
                U.S. GEOLOGICAL SURVEY MODULAR HYDROLOGIC MODEL
                            VERSION 6.6.1 02/10/2025

   MODFLOW 6 compiled Feb 14 2025 13:39:18 with Intel(R) Fortran Intel(R) 64
   Compiler Classic for applications running on Intel(R) 64, Version 2021.7.0
                             Build 20220726_000000

This software has been approved for release by the U.S. Geological 
Survey (USGS). Although the software has been subjected to rigorous 
review, the USGS reserves the right to update the software as needed 
pursuant to further analysis and review. No warranty, expressed or 
implied, is made by the USGS or the U.S. Government as to the 
functionality of the software and related material nor shall the 
fact of release constitute any such warranty. Furthermore, the 
software is released on condition that neither the USGS nor the U.S. 
Government shall be held liable for any damages resulting from its 
authorized or unauthorized use. Also refer to the USGS Water 
Resources Software User Rights Notice for complete use, copyright, 
and distribution information.


As a work of the United States Government, this USGS product is 
in the public domain within the United States. You can copy, 
modify, distribute, and perform the work, even for commercial 
purposes, all without asking permission. Additionally, USGS 
waives copyright and related rights in the work worldwide 
through CC0 1.0 Universal Public Domain Dedication 
(https://creativecommons.org/publicdomain/zero/1.0/).

The following GNU Lesser General Public License (LGPL) libraries
are used in this USGS product:

    SPARSKIT version 2.0
      ilut, luson, and qsplit 
      (https://www-users.cse.umn.edu/~saad/software/SPARSKIT/)

    RCM - Reverse Cuthill McKee Ordering
      (https://people.math.sc.edu/Burkardt/f_src/rcm/rcm.html)

    BLAS - Basic Linear Algebra Subprograms Level 1
      (https://people.math.sc.edu/Burkardt/f_src/blas1_d/blas1_d.html)

    SPARSEKIT - Sparse Matrix Utility Package
      amux, dperm, dvperm, rperm, and cperm
      (https://people.sc.fsu.edu/~jburkardt/f77_src/sparsekit/sparsekit.html)

The following BSD-3 License libraries are used in this USGS product:

    Modern Fortran DAG Library
      Copyright (c) 2018, Jacob Williams
      All rights reserved.
      (https://github.com/jacobwilliams/daglib)

MODFLOW 6 compiler options: -Ilinux/obj_mf6 -O2 -no-heap-arrays -fpe0
-traceback -Qdiag-disable:7416 -Qdiag-disable:7025 -Qdiag-disable:5268 -fpp
-module linux/mod_mf6/ -c -o linux/obj_mf6/compilerversion.o

System command used to initiate simulation:
/home/sensei/mfplayground/modflow-python/mf6.4.1_linux/bin/mf6

MODFLOW was compiled using uniform precision.

Real Variables
  KIND: 8
  TINY (smallest non-zero value):    2.225074-308
  HUGE (largest value):    1.797693+308
  PRECISION: 15
  SIZE IN BITS: 64

Integer Variables
  KIND: 4
  HUGE (largest value): 2147483647
  SIZE IN BITS: 32

Long Integer Variables
  KIND: 8
  HUGE (largest value): 9223372036854775807
  SIZE IN BITS: 64

Logical Variables
  KIND: 4
  SIZE IN BITS: 32
 

 OPENED mfsim.nam
 FILE TYPE:NAM6               UNIT 1001   STATUS:OLD                 
 FORMAT:FORMATTED              ACCESS:SEQUENTIAL          
 ACTION:READ                

 # File generated by Flopy version 3.9.2 on 11/21/2025 at 00:17:38.

 OPENED sim-es7.tdis
 FILE TYPE:TDIS6              UNIT 1002   STATUS:OLD                 
 FORMAT:FORMATTED              ACCESS:SEQUENTIAL          
 ACTION:READ                

 # File generated by Flopy version 3.9.2 on 11/21/2025 at 00:17:38.

 OPENED gwf-es7.nam
 FILE TYPE:GWF6               UNIT 1003   STATUS:OLD                 
 FORMAT:FORMATTED              ACCESS:SEQUENTIAL          
 ACTION:READ                

 # File generated by Flopy version 3.9.2 on 11/21/2025 at 00:17:38.

 OPENED gwf-es7.dis
 FILE TYPE:DIS6               UNIT 1004   STATUS:OLD                 
 FORMAT:FORMATTED              ACCESS:SEQUENTIAL          
 ACTION:READ                

 # File generated by Flopy version 3.9.2 on 11/21/2025 at 00:17:38.

 OPENED gwf-es7.npf
 FILE TYPE:NPF6               UNIT 1005   STATUS:OLD                 
 FORMAT:FORMATTED              ACCESS:SEQUENTIAL          
 ACTION:READ                

 # File generated by Flopy version 3.9.2 on 11/21/2025 at 00:17:38.

 OPENED gwf-es7.sto
 FILE TYPE:STO6               UNIT 1006   STATUS:OLD                 
 FORMAT:FORMATTED              ACCESS:SEQUENTIAL          
 ACTION:READ                

 # File generated by Flopy version 3.9.2 on 11/21/2025 at 00:17:38.

 OPENED gwf-es7.ic
 FILE TYPE:IC6                UNIT 1007   STATUS:OLD                 
 FORMAT:FORMATTED              ACCESS:SEQUENTIAL          
 ACTION:READ                

 # File generated by Flopy version 3.9.2 on 11/21/2025 at 00:17:38.

 OPENED gwf-es7.oc
 FILE TYPE:OC6       UNIT 1008   STATUS:OLD                 
 FORMAT:FORMATTED              ACCESS:SEQUENTIAL          
 ACTION:READ                


 OPENED gwf-es7.chd
 FILE TYPE:CHD6               UNIT 1009   STATUS:OLD                 
 FORMAT:FORMATTED              ACCESS:SEQUENTIAL          
 ACTION:READ                

 # File generated by Flopy version 3.9.2 on 11/21/2025 at 00:17:38.
    AUXILIARY  VARIABLE: CONCENTRATION   

 OPENED gwt-es7.nam
 FILE TYPE:GWT6               UNIT 1010   STATUS:OLD                 
 FORMAT:FORMATTED              ACCESS:SEQUENTIAL          
 ACTION:READ                

 # File generated by Flopy version 3.9.2 on 11/21/2025 at 00:17:38.

 OPENED gwt-es7.dis
 FILE TYPE:DIS6               UNIT 1011   STATUS:OLD                 
 FORMAT:FORMATTED              ACCESS:SEQUENTIAL          
 ACTION:READ                

 # File generated by Flopy version 3.9.2 on 11/21/2025 at 00:17:38.

 OPENED gwt-es7.ic
 FILE TYPE:IC6                UNIT 1012   STATUS:OLD                 
 FORMAT:FORMATTED              ACCESS:SEQUENTIAL          
 ACTION:READ                

 # File generated by Flopy version 3.9.2 on 11/21/2025 at 00:17:38.

 OPENED gwt-es7.mst
 FILE TYPE:MST6      UNIT 1013   STATUS:OLD                 
 FORMAT:FORMATTED              ACCESS:SEQUENTIAL          
 ACTION:READ                


 OPENED gwt-es7.adv
 FILE TYPE:ADV6      UNIT 1014   STATUS:OLD                 
 FORMAT:FORMATTED              ACCESS:SEQUENTIAL          
 ACTION:READ                


 OPENED gwt-es7.dsp
 FILE TYPE:DSP6               UNIT 1015   STATUS:OLD                 
 FORMAT:FORMATTED              ACCESS:SEQUENTIAL          
 ACTION:READ                

 # File generated by Flopy version 3.9.2 on 11/21/2025 at 00:17:38.

 OPENED gwt-es7.ssm
 FILE TYPE:SSM6      UNIT 1016   STATUS:OLD                 
 FORMAT:FORMATTED              ACCESS:SEQUENTIAL          
 ACTION:READ                


 OPENED gwt-es7.oc
 FILE TYPE:OC6       UNIT 1017   STATUS:OLD                 
 FORMAT:FORMATTED              ACCESS:SEQUENTIAL          
 ACTION:READ                


 OPENED es7.gwfgwt
 FILE TYPE:GWF6-GWT6          UNIT 1018   STATUS:OLD                 
 FORMAT:FORMATTED              ACCESS:SEQUENTIAL          
 ACTION:READ                

 # File generated by Flopy version 3.9.2 on 11/21/2025 at 00:17:38.

 READING SIMULATION OPTIONS
    MAXIMUM NUMBER OF ERRORS THAT WILL BE STORED IS 1000
 END OF SIMULATION OPTIONS

 READING SIMULATION TIMING

 TDIS -- TEMPORAL DISCRETIZATION PACKAGE,
 VERSION 1 : 11/13/2014 - INPUT READ FROM MEMPATH: __INPUT__/SIM/TDIS                                
 PROCESSING TDIS OPTIONS
    SIMULATION TIME UNIT IS SECONDS
 END OF TDIS OPTIONS
 PROCESSING TDIS DIMENSIONS
    3 STRESS PERIOD(S) IN SIMULATION
 END OF TDIS DIMENSIONS
 PROCESSING TDIS PERIODDATA


 STRESS PERIOD     LENGTH       TIME STEPS     MULTIPLIER FOR DELT
 ----------------------------------------------------------------------------
        1         8640.000          1                    1.000
        2        3.1536000E+08    364                    1.000
        3        3.1536000E+08    364                    1.000
 END OF TDIS PERIODDATA
 END OF SIMULATION TIMING

 READING SIMULATION MODELS
    GWF6 model 1 will be created
    GWT6 model 2 will be created
 END OF SIMULATION MODELS

 READING SIMULATION EXCHANGES
    GWF6-GWT6 exchange 1 will be created to connect model 1 with model 2
 END OF SIMULATION EXCHANGES

 READING SOLUTIONGROUP

 Creating solution: SLN_1           

 OPENED gwf-es7.ims
 FILE TYPE:IMS   UNIT 1021   STATUS:OLD                 
 FORMAT:FORMATTED              ACCESS:SEQUENTIAL          
 ACTION:READ                


 Creating solution: SLN_2           

 OPENED gwt-es7.ims
 FILE TYPE:IMS   UNIT 1022   STATUS:OLD                 
 FORMAT:FORMATTED              ACCESS:SEQUENTIAL          
 ACTION:READ                

 END OF SOLUTIONGROUP

PROCESSING MODEL CONNECTIONS
END OF MODEL CONNECTIONS

 IMS -- ITERATIVE MODEL SOLUTION PACKAGE, VERSION 6, 4/28/2017
         INPUT READ FROM UNIT 1021
 # File generated by Flopy version 3.9.2 on 11/21/2025 at 00:17:38.

 PROCESSING IMS OPTIONS
 END OF IMS OPTIONS

 PROCESSING IMS NONLINEAR
 END OF IMS NONLINEAR DATA
 ***UNDER-RELAXATION WILL NOT BE USED***
 

 PROCESSING LINEAR DATA
 END OF LINEAR DATA
 ***IMS LINEAR SOLVER WILL BE USED***

 IMSLINEAR -- UNSTRUCTURED LINEAR SOLUTION PACKAGE, VERSION 8, 04/28/2017
 A symmetric matrix will be solved

 OUTER ITERATION CONVERGENCE CRITERION    (DVCLOSE) =    0.100000E-05
 MAXIMUM NUMBER OF OUTER ITERATIONS        (MXITER) = 100
 SOLVER PRINTOUT INDEX                     (IPRIMS) = 1
 NONLINEAR ITERATION METHOD            (NONLINMETH) = 0
 LINEAR SOLUTION METHOD                   (LINMETH) = 1

       SOLUTION BY THE        CONJUGATE-GRADIENT       METHOD
 ------------------------------------------------------------------
 MAXIMUM OF 100 CALLS OF SOLUTION ROUTINE
 MAXIMUM OF 300 INTERNAL ITERATIONS PER CALL TO SOLUTION ROUTINE
 LINEAR ACCELERATION METHOD            = CG        
 MATRIX PRECONDITIONING TYPE           = MOD. INCOMPLETE LU  
 MATRIX SCALING APPROACH               = NO SCALING          
 MATRIX REORDERING APPROACH            = ORIGINAL ORDERING        
 NUMBER OF ORTHOGONALIZATIONS          = 0
 HEAD CHANGE CRITERION FOR CLOSURE     =    0.10000E-05
 RESIDUAL CHANGE CRITERION FOR CLOSURE =    0.10000E-05
 RESIDUAL CONVERGENCE OPTION           = 0
 RESIDUAL CONVERGENCE NORM             = INFINITY NORM   
 RELAXATION FACTOR                     =    0.10000E+01




 IMS -- ITERATIVE MODEL SOLUTION PACKAGE, VERSION 6, 4/28/2017
         INPUT READ FROM UNIT 1022
 # File generated by Flopy version 3.9.2 on 11/21/2025 at 00:17:38.

 PROCESSING IMS OPTIONS
 END OF IMS OPTIONS

 PROCESSING IMS NONLINEAR
 END OF IMS NONLINEAR DATA
 ***UNDER-RELAXATION WILL NOT BE USED***
 

 PROCESSING LINEAR DATA
 END OF LINEAR DATA
 ***IMS LINEAR SOLVER WILL BE USED***

 IMSLINEAR -- UNSTRUCTURED LINEAR SOLUTION PACKAGE, VERSION 8, 04/28/2017
 An asymmetric matrix will be solved

 OUTER ITERATION CONVERGENCE CRITERION    (DVCLOSE) =    0.100000E-05
 MAXIMUM NUMBER OF OUTER ITERATIONS        (MXITER) = 100
 SOLVER PRINTOUT INDEX                     (IPRIMS) = 1
 NONLINEAR ITERATION METHOD            (NONLINMETH) = 0
 LINEAR SOLUTION METHOD                   (LINMETH) = 1

       SOLUTION BY THE BICONJUGATE-GRADIENT STABILIZED METHOD
 ------------------------------------------------------------------
 MAXIMUM OF 100 CALLS OF SOLUTION ROUTINE
 MAXIMUM OF 300 INTERNAL ITERATIONS PER CALL TO SOLUTION ROUTINE
 LINEAR ACCELERATION METHOD            = BCGS      
 MATRIX PRECONDITIONING TYPE           = MOD. INCOMPLETE LU  
 MATRIX SCALING APPROACH               = NO SCALING          
 MATRIX REORDERING APPROACH            = ORIGINAL ORDERING        
 NUMBER OF ORTHOGONALIZATIONS          = 0
 HEAD CHANGE CRITERION FOR CLOSURE     =    0.10000E-05
 RESIDUAL CHANGE CRITERION FOR CLOSURE =    0.10000E-05
 RESIDUAL CONVERGENCE OPTION           = 0
 RESIDUAL CONVERGENCE NORM             = INFINITY NORM   
 RELAXATION FACTOR                     =    0.10000E+01



 
    Solving:  Stress period:     1    Time step:     1
 
1
 STRESS PERIOD NO. 1, LENGTH =   8640.000    
 ------------------------------------------
 NUMBER OF TIME STEPS = 1
 MULTIPLIER FOR DELT =     1.000
 INITIAL TIME STEP SIZE =   8640.000    

 SLN_1 OUTER ITERATION SUMMARY
 ----------------------------------------------------------------------------------------------------------
                                OUTER      INNER                    STEP   MAXIMUM CHANGE MODEL-(CELLID) OR
 OUTER ITERATION STEP       ITERATION  ITERATION  MAXIMUM CHANGE SUCCESS             MODEL-PACKAGE-(NUMBER)
 ----------------------------------------------------------------------------------------------------------
 Model                              1          9      -22.043275                            1_GWF-(3,49,25)
 Model                              2          1  1.42886165E-07       *                     1_GWF-(3,7,21)
 ----------------------------------------------------------------------------------------------------------


 2 CALLS TO NUMERICAL SOLUTION IN TIME STEP 1 STRESS PERIOD 1
 10 TOTAL ITERATIONS

 SLN_2 OUTER ITERATION SUMMARY
 ----------------------------------------------------------------------------------------------------------
                                OUTER      INNER                    STEP   MAXIMUM CHANGE MODEL-(CELLID) OR
 OUTER ITERATION STEP       ITERATION  ITERATION  MAXIMUM CHANGE SUCCESS             MODEL-PACKAGE-(NUMBER)
 ----------------------------------------------------------------------------------------------------------
 Model                              1          2  2.57662564E-03                             2_GWT-(2,11,7)
 Model                              2          1 -7.41815593E-07       *                      2_GWT-(2,9,7)
 ----------------------------------------------------------------------------------------------------------


 2 CALLS TO NUMERICAL SOLUTION IN TIME STEP 1 STRESS PERIOD 1
 3 TOTAL ITERATIONS
 
    Solving:  Stress period:     2    Time step:     1
 
1
 STRESS PERIOD NO. 2, LENGTH =  0.3153600E+09
 ------------------------------------------
 NUMBER OF TIME STEPS = 364
 MULTIPLIER FOR DELT =     1.000
 INITIAL TIME STEP SIZE =   866373.6    

 SLN_1 OUTER ITERATION SUMMARY
 ----------------------------------------------------------------------------------------------------------
                                OUTER      INNER                    STEP   MAXIMUM CHANGE MODEL-(CELLID) OR
 OUTER ITERATION STEP       ITERATION  ITERATION  MAXIMUM CHANGE SUCCESS             MODEL-PACKAGE-(NUMBER)
 ----------------------------------------------------------------------------------------------------------
 Model                              1         17      -22.728293                            1_GWF-(1,49,25)
 Model                              2          1  1.79319159E-07       *                     1_GWF-(2,39,1)
 ----------------------------------------------------------------------------------------------------------


 2 CALLS TO NUMERICAL SOLUTION IN TIME STEP 1 STRESS PERIOD 2
 18 TOTAL ITERATIONS

 SLN_2 OUTER ITERATION SUMMARY
 ----------------------------------------------------------------------------------------------------------
                                OUTER      INNER                    STEP   MAXIMUM CHANGE MODEL-(CELLID) OR
 OUTER ITERATION STEP       ITERATION  ITERATION  MAXIMUM CHANGE SUCCESS             MODEL-PACKAGE-(NUMBER)
 ----------------------------------------------------------------------------------------------------------
 Model                              1          2      -14.081644                             2_GWT-(1,11,8)
 Model                              2          2      0.15080739                             2_GWT-(1,11,8)
 Model                              3          2  1.44946984E-02                              2_GWT-(2,9,7)
 Model                              4          2 -2.62419586E-03                              2_GWT-(2,9,7)
 Model                              5          2  4.74915376E-04                              2_GWT-(2,9,7)
 Model                              6          2 -8.59266923E-05                              2_GWT-(2,9,7)
 Model                              7          2  2.27098537E-05                              2_GWT-(2,7,7)
 Model                              8          2 -6.68322772E-06                              2_GWT-(2,7,7)
 Model                              9          2  1.92769802E-06                              2_GWT-(2,7,7)
 Model                             10          1 -2.08488231E-07       *                      2_GWT-(2,7,7)
 ----------------------------------------------------------------------------------------------------------


 10 CALLS TO NUMERICAL SOLUTION IN TIME STEP 1 STRESS PERIOD 2
 19 TOTAL ITERATIONS
 
    Solving:  Stress period:     2    Time step:     2
 

 SLN_1 OUTER ITERATION SUMMARY
 ----------------------------------------------------------------------------------------------------------
                                OUTER      INNER                    STEP   MAXIMUM CHANGE MODEL-(CELLID) OR
 OUTER ITERATION STEP       ITERATION  ITERATION  MAXIMUM CHANGE SUCCESS             MODEL-PACKAGE-(NUMBER)
 ----------------------------------------------------------------------------------------------------------
 Model                              1         16      -6.1516849                            1_GWF-(1,47,22)
 Model                              2          1  1.07550932E-07       *                     1_GWF-(2,21,1)
 ----------------------------------------------------------------------------------------------------------


 2 CALLS TO NUMERICAL SOLUTION IN TIME STEP 2 STRESS PERIOD 2
 17 TOTAL ITERATIONS

 SLN_2 OUTER ITERATION SUMMARY
 ----------------------------------------------------------------------------------------------------------
                                OUTER      INNER                    STEP   MAXIMUM CHANGE MODEL-(CELLID) OR
 OUTER ITERATION STEP       ITERATION  ITERATION  MAXIMUM CHANGE SUCCESS             MODEL-PACKAGE-(NUMBER)
 ----------------------------------------------------------------------------------------------------------
 Model                              1          2      -26.811820                             2_GWT-(1,11,8)
 Model                              2          2      0.54263406                             2_GWT-(1,11,8)
 Model                              3          2  3.84055395E-02                             2_GWT-(2,12,8)
 Model                              4          2 -4.56797344E-03                             2_GWT-(2,11,7)
 Model                              5          2  6.41261561E-04                              2_GWT-(2,9,7)
 Model                              6          2 -1.19124625E-04                              2_GWT-(2,9,7)
 Model                              7          2  2.21281879E-05                              2_GWT-(2,9,7)
 Model                              8          2 -4.10692531E-06                              2_GWT-(2,9,7)
 Model                              9          1  5.04141460E-07       *                      2_GWT-(2,9,7)
 ----------------------------------------------------------------------------------------------------------


 9 CALLS TO NUMERICAL SOLUTION IN TIME STEP 2 STRESS PERIOD 2
 17 TOTAL ITERATIONS
 
    Solving:  Stress period:     2    Time step:     3
 

 SLN_1 OUTER ITERATION SUMMARY
 ----------------------------------------------------------------------------------------------------------
                                OUTER      INNER                    STEP   MAXIMUM CHANGE MODEL-(CELLID) OR
 OUTER ITERATION STEP       ITERATION  ITERATION  MAXIMUM CHANGE SUCCESS             MODEL-PACKAGE-(NUMBER)
 ----------------------------------------------------------------------------------------------------------
 Model                              1         15      -3.3500193                            1_GWF-(1,45,21)
 Model                              2          1  1.90221726E-07       *                     1_GWF-(2,1,25)
 ----------------------------------------------------------------------------------------------------------


 2 CALLS TO NUMERICAL SOLUTION IN TIME STEP 3 STRESS PERIOD 2
 16 TOTAL ITERATIONS

 SLN_2 OUTER ITERATION SUMMARY
 ----------------------------------------------------------------------------------------------------------
                                OUTER      INNER                    STEP   MAXIMUM CHANGE MODEL-(CELLID) OR
 OUTER ITERATION STEP       ITERATION  ITERATION  MAXIMUM CHANGE SUCCESS             MODEL-PACKAGE-(NUMBER)
 ----------------------------------------------------------------------------------------------------------
 Model                              1          2      -33.579934                             2_GWT-(1,11,8)
 Model                              2          2     -0.94079431                             2_GWT-(1,12,9)
 Model                              3          2  5.24778856E-02                             2_GWT-(1,12,7)
 Model                              4          2 -5.66616016E-03                             2_GWT-(2,12,8)
 Model                              5          2  6.17372091E-04                             2_GWT-(2,12,8)
 Model                              6          2 -7.34159121E-05                             2_GWT-(2,11,7)
 Model                              7          2  9.26220935E-06                             2_GWT-(2,11,7)
 Model                              8          2 -1.17252358E-06                             2_GWT-(2,11,7)
 Model                              9          1  7.55302967E-08       *                      2_GWT-(2,9,7)
 ----------------------------------------------------------------------------------------------------------


 9 CALLS TO NUMERICAL SOLUTION IN TIME STEP 3 STRESS PERIOD 2
 17 TOTAL ITERATIONS
 
    Solving:  Stress period:     2    Time step:     4
 

 SLN_1 OUTER ITERATION SUMMARY
 ----------------------------------------------------------------------------------------------------------
                                OUTER      INNER                    STEP   MAXIMUM CHANGE MODEL-(CELLID) OR
 OUTER ITERATION STEP       ITERATION  ITERATION  MAXIMUM CHANGE SUCCESS             MODEL-PACKAGE-(NUMBER)
 ----------------------------------------------------------------------------------------------------------
 Model                              1         15       2.2741319                              1_GWF-(1,7,8)
 Model                              2          1 -1.12874659E-07       *                     1_GWF-(2,30,1)
 ----------------------------------------------------------------------------------------------------------


 2 CALLS TO NUMERICAL SOLUTION IN TIME STEP 4 STRESS PERIOD 2
 16 TOTAL ITERATIONS

 SLN_2 OUTER ITERATION SUMMARY
 ----------------------------------------------------------------------------------------------------------
                                OUTER      INNER                    STEP   MAXIMUM CHANGE MODEL-(CELLID) OR
 OUTER ITERATION STEP       ITERATION  ITERATION  MAXIMUM CHANGE SUCCESS             MODEL-PACKAGE-(NUMBER)
 ----------------------------------------------------------------------------------------------------------
 Model                              1          2       39.296084                             2_GWT-(1,14,8)
 Model                              2          2      -1.4141912                             2_GWT-(1,12,9)
 Model                              3          2 -8.20121023E-02                             2_GWT-(1,12,9)
 Model                              4          2 -6.48789853E-03                             2_GWT-(1,12,9)
 Model                              5          2 -5.78993029E-04                             2_GWT-(1,12,9)
 Model                              6          2  6.47541891E-05                             2_GWT-(1,12,7)
 Model                              7          2  6.78829900E-06                             2_GWT-(1,12,7)
 Model                              8          1  8.18893454E-07       *                     2_GWT-(1,12,7)
 ----------------------------------------------------------------------------------------------------------


 8 CALLS TO NUMERICAL SOLUTION IN TIME STEP 4 STRESS PERIOD 2
 15 TOTAL ITERATIONS
 
    Solving:  Stress period:     2    Time step:     5
 

 SLN_1 OUTER ITERATION SUMMARY
 ----------------------------------------------------------------------------------------------------------
                                OUTER      INNER                    STEP   MAXIMUM CHANGE MODEL-(CELLID) OR
 OUTER ITERATION STEP       ITERATION  ITERATION  MAXIMUM CHANGE SUCCESS             MODEL-PACKAGE-(NUMBER)
 ----------------------------------------------------------------------------------------------------------
 Model                              1         14       1.7174961                              1_GWF-(1,8,9)
 Model                              2          1  2.42340320E-07       *                     1_GWF-(2,30,1)
 ----------------------------------------------------------------------------------------------------------


 2 CALLS TO NUMERICAL SOLUTION IN TIME STEP 5 STRESS PERIOD 2
 15 TOTAL ITERATIONS

 SLN_2 OUTER ITERATION SUMMARY
 ----------------------------------------------------------------------------------------------------------
                                OUTER      INNER                    STEP   MAXIMUM CHANGE MODEL-(CELLID) OR
 OUTER ITERATION STEP       ITERATION  ITERATION  MAXIMUM CHANGE SUCCESS             MODEL-PACKAGE-(NUMBER)
 ----------------------------------------------------------------------------------------------------------
 Model                              1          2       44.136501                             2_GWT-(1,14,8)
 Model                              2          2      -1.7223366                             2_GWT-(1,12,9)
 Model                              3          2      0.10034583                             2_GWT-(1,13,9)
 Model                              4          2 -8.60649233E-03                             2_GWT-(1,12,9)
 Model                              5          2 -7.26236925E-04                             2_GWT-(1,12,9)
 Model                              6          2 -5.56889598E-05                             2_GWT-(1,12,9)
 Model                              7          2 -4.85654073E-06                             2_GWT-(1,12,9)
 Model                              8          1  4.09286827E-07       *                     2_GWT-(1,12,7)
 ----------------------------------------------------------------------------------------------------------


 8 CALLS TO NUMERICAL SOLUTION IN TIME STEP 5 STRESS PERIOD 2
 15 TOTAL ITERATIONS
 
    Solving:  Stress period:     2    Time step:     6
 

 SLN_1 OUTER ITERATION SUMMARY
 ----------------------------------------------------------------------------------------------------------
                                OUTER      INNER                    STEP   MAXIMUM CHANGE MODEL-(CELLID) OR
 OUTER ITERATION STEP       ITERATION  ITERATION  MAXIMUM CHANGE SUCCESS             MODEL-PACKAGE-(NUMBER)
 ----------------------------------------------------------------------------------------------------------
 Model                              1         14       1.3714556                              1_GWF-(1,9,9)
 Model                              2          1 -1.96663677E-07       *                     1_GWF-(2,25,1)
 ----------------------------------------------------------------------------------------------------------


 2 CALLS TO NUMERICAL SOLUTION IN TIME STEP 6 STRESS PERIOD 2
 15 TOTAL ITERATIONS

 SLN_2 OUTER ITERATION SUMMARY
 ----------------------------------------------------------------------------------------------------------
                                OUTER      INNER                    STEP   MAXIMUM CHANGE MODEL-(CELLID) OR
 OUTER ITERATION STEP       ITERATION  ITERATION  MAXIMUM CHANGE SUCCESS             MODEL-PACKAGE-(NUMBER)
 ----------------------------------------------------------------------------------------------------------
 Model                              1          2       46.297639                             2_GWT-(1,14,8)
 Model                              2          2      -1.8446844                             2_GWT-(1,12,9)
 Model                              3          2      0.10248320                             2_GWT-(1,13,9)
 Model                              4          2 -8.72328287E-03                             2_GWT-(1,12,9)
 Model                              5          2 -6.67404118E-04                             2_GWT-(1,12,9)
 Model                              6          2 -5.06896173E-05                             2_GWT-(1,12,9)
 Model                              7          2 -4.03278239E-06                             2_GWT-(1,12,9)
 Model                              8          1  4.54083136E-07       *                     2_GWT-(1,13,7)
 ----------------------------------------------------------------------------------------------------------


 8 CALLS TO NUMERICAL SOLUTION IN TIME STEP 6 STRESS PERIOD 2
 15 TOTAL ITERATIONS
 
    Solving:  Stress period:     2    Time step:     7
 

 SLN_1 OUTER ITERATION SUMMARY
 ----------------------------------------------------------------------------------------------------------
                                OUTER      INNER                    STEP   MAXIMUM CHANGE MODEL-(CELLID) OR
 OUTER ITERATION STEP       ITERATION  ITERATION  MAXIMUM CHANGE SUCCESS             MODEL-PACKAGE-(NUMBER)
 ----------------------------------------------------------------------------------------------------------
 Model                              1         14       1.1603378                             1_GWF-(1,7,26)
 Model                              2          1  1.58388502E-07       *                     1_GWF-(2,31,1)
 ----------------------------------------------------------------------------------------------------------


 2 CALLS TO NUMERICAL SOLUTION IN TIME STEP 7 STRESS PERIOD 2
 15 TOTAL ITERATIONS

 SLN_2 OUTER ITERATION SUMMARY
 ----------------------------------------------------------------------------------------------------------
                                OUTER      INNER                    STEP   MAXIMUM CHANGE MODEL-(CELLID) OR
 OUTER ITERATION STEP       ITERATION  ITERATION  MAXIMUM CHANGE SUCCESS             MODEL-PACKAGE-(NUMBER)
 ----------------------------------------------------------------------------------------------------------
 Model                              1          2       46.760526                             2_GWT-(1,14,9)
 Model                              2          2      -1.8169177                             2_GWT-(1,12,9)
 Model                              3          2  9.15702022E-02                             2_GWT-(1,13,9)
 Model                              4          2 -7.43581733E-03                             2_GWT-(1,12,9)
 Model                              5          2 -4.92912937E-04                             2_GWT-(1,12,9)
 Model                              6          2  6.61581099E-05                             2_GWT-(1,13,7)
 Model                              7          2  9.19648568E-06                             2_GWT-(1,13,7)
 Model                              8          2  1.28884562E-06                             2_GWT-(1,13,7)
 Model                              9          1  1.37872178E-07       *                     2_GWT-(1,13,7)
 ----------------------------------------------------------------------------------------------------------


 9 CALLS TO NUMERICAL SOLUTION IN TIME STEP 7 STRESS PERIOD 2
 17 TOTAL ITERATIONS
 
    Solving:  Stress period:     2    Time step:     8
 

 SLN_1 OUTER ITERATION SUMMARY
 ----------------------------------------------------------------------------------------------------------
                                OUTER      INNER                    STEP   MAXIMUM CHANGE MODEL-(CELLID) OR
 OUTER ITERATION STEP       ITERATION  ITERATION  MAXIMUM CHANGE SUCCESS             MODEL-PACKAGE-(NUMBER)
 ----------------------------------------------------------------------------------------------------------
 Model                              1         14       1.0114967                             1_GWF-(1,8,26)
 Model                              2          1  1.35641585E-07       *                     1_GWF-(2,32,1)
 ----------------------------------------------------------------------------------------------------------


 2 CALLS TO NUMERICAL SOLUTION IN TIME STEP 8 STRESS PERIOD 2
 15 TOTAL ITERATIONS

 SLN_2 OUTER ITERATION SUMMARY
 ----------------------------------------------------------------------------------------------------------
                                OUTER      INNER                    STEP   MAXIMUM CHANGE MODEL-(CELLID) OR
 OUTER ITERATION STEP       ITERATION  ITERATION  MAXIMUM CHANGE SUCCESS             MODEL-PACKAGE-(NUMBER)
 ----------------------------------------------------------------------------------------------------------
 Model                              1          2       46.173015                             2_GWT-(1,14,9)
 Model                              2          2      -1.6888058                             2_GWT-(1,12,9)
 Model                              3          2  7.41770958E-02                             2_GWT-(1,13,9)
 Model                              4          2 -5.64610291E-03                             2_GWT-(1,12,9)
 Model                              5          2  6.02059992E-04                             2_GWT-(1,13,7)
 Model                              6          2  8.46872857E-05                             2_GWT-(1,13,7)
 Model                              7          2  1.18374347E-05                             2_GWT-(1,13,7)
 Model                              8          2  1.65835206E-06                             2_GWT-(1,13,7)
 Model                              9          1  1.91232175E-07       *                     2_GWT-(1,13,7)
 ----------------------------------------------------------------------------------------------------------


 9 CALLS TO NUMERICAL SOLUTION IN TIME STEP 8 STRESS PERIOD 2
 17 TOTAL ITERATIONS
 
    Solving:  Stress period:     2    Time step:     9
 

 SLN_1 OUTER ITERATION SUMMARY
 ----------------------------------------------------------------------------------------------------------
                                OUTER      INNER                    STEP   MAXIMUM CHANGE MODEL-(CELLID) OR
 OUTER ITERATION STEP       ITERATION  ITERATION  MAXIMUM CHANGE SUCCESS             MODEL-PACKAGE-(NUMBER)
 ----------------------------------------------------------------------------------------------------------
 Model                              1         14      0.88963676                             1_GWF-(1,9,26)
 Model                              2          1  1.11981990E-07       *                     1_GWF-(2,32,1)
 ----------------------------------------------------------------------------------------------------------


 2 CALLS TO NUMERICAL SOLUTION IN TIME STEP 9 STRESS PERIOD 2
 15 TOTAL ITERATIONS

 SLN_2 OUTER ITERATION SUMMARY
 ----------------------------------------------------------------------------------------------------------
                                OUTER      INNER                    STEP   MAXIMUM CHANGE MODEL-(CELLID) OR
 OUTER ITERATION STEP       ITERATION  ITERATION  MAXIMUM CHANGE SUCCESS             MODEL-PACKAGE-(NUMBER)
 ----------------------------------------------------------------------------------------------------------
 Model                              1          2       44.511189                             2_GWT-(1,14,9)
 Model                              2          2      -1.5040324                             2_GWT-(1,12,9)
 Model                              3          2  5.53944757E-02                             2_GWT-(1,13,9)
 Model                              4          2  4.38209099E-03                             2_GWT-(1,13,7)
 Model                              5          2  5.98754719E-04                             2_GWT-(1,13,7)
 Model                              6          2  8.24347775E-05                             2_GWT-(1,13,7)
 Model                              7          2  1.13296775E-05                             2_GWT-(1,13,7)
 Model                              8          2  1.55903672E-06                             2_GWT-(1,13,7)
 Model                              9          1  1.72661714E-07       *                     2_GWT-(1,13,7)
 ----------------------------------------------------------------------------------------------------------


 9 CALLS TO NUMERICAL SOLUTION IN TIME STEP 9 STRESS PERIOD 2
 17 TOTAL ITERATIONS
 
    Solving:  Stress period:     2    Time step:    10
 

 SLN_1 OUTER ITERATION SUMMARY
 ----------------------------------------------------------------------------------------------------------
                                OUTER      INNER                    STEP   MAXIMUM CHANGE MODEL-(CELLID) OR
 OUTER ITERATION STEP       ITERATION  ITERATION  MAXIMUM CHANGE SUCCESS             MODEL-PACKAGE-(NUMBER)
 ----------------------------------------------------------------------------------------------------------
 Model                              1         14      0.78736002                             1_GWF-(1,9,26)
 Model                              2          1  8.91791387E-08       *                     1_GWF-(2,33,1)
 ----------------------------------------------------------------------------------------------------------


 2 CALLS TO NUMERICAL SOLUTION IN TIME STEP 10 STRESS PERIOD 2
 15 TOTAL ITERATIONS

 SLN_2 OUTER ITERATION SUMMARY
 ----------------------------------------------------------------------------------------------------------
                                OUTER      INNER                    STEP   MAXIMUM CHANGE MODEL-(CELLID) OR
 OUTER ITERATION STEP       ITERATION  ITERATION  MAXIMUM CHANGE SUCCESS             MODEL-PACKAGE-(NUMBER)
 ----------------------------------------------------------------------------------------------------------
 Model                              1          2       42.089402                             2_GWT-(1,14,9)
 Model                              2          2      -1.2949989                             2_GWT-(1,12,9)
 Model                              3          2 -4.03895847E-02                             2_GWT-(1,16,8)
 Model                              4          2 -4.31060284E-03                             2_GWT-(1,16,8)
 Model                              5          2  5.05107244E-04                             2_GWT-(1,13,7)
 Model                              6          2  6.62069929E-05                             2_GWT-(1,13,7)
 Model                              7          2  8.68844722E-06                             2_GWT-(1,13,7)
 Model                              8          2  1.14113135E-06                             2_GWT-(1,13,7)
 Model                              9          1  1.09205473E-07       *                     2_GWT-(1,13,7)
 ----------------------------------------------------------------------------------------------------------


 9 CALLS TO NUMERICAL SOLUTION IN TIME STEP 10 STRESS PERIOD 2
 17 TOTAL ITERATIONS
 
    Solving:  Stress period:     2    Time step:    11
 

 SLN_1 OUTER ITERATION SUMMARY
 ----------------------------------------------------------------------------------------------------------
                                OUTER      INNER                    STEP   MAXIMUM CHANGE MODEL-(CELLID) OR
 OUTER ITERATION STEP       ITERATION  ITERATION  MAXIMUM CHANGE SUCCESS             MODEL-PACKAGE-(NUMBER)
 ----------------------------------------------------------------------------------------------------------
 Model                              1         13      0.70168633                            1_GWF-(1,10,26)
 Model                              2          1 -2.47816843E-07       *                     1_GWF-(2,34,1)
 ----------------------------------------------------------------------------------------------------------


 2 CALLS TO NUMERICAL SOLUTION IN TIME STEP 11 STRESS PERIOD 2
 14 TOTAL ITERATIONS

 SLN_2 OUTER ITERATION SUMMARY
 ----------------------------------------------------------------------------------------------------------
                                OUTER      INNER                    STEP   MAXIMUM CHANGE MODEL-(CELLID) OR
 OUTER ITERATION STEP       ITERATION  ITERATION  MAXIMUM CHANGE SUCCESS             MODEL-PACKAGE-(NUMBER)
 ----------------------------------------------------------------------------------------------------------
 Model                              1          2       39.150376                             2_GWT-(1,14,9)
 Model                              2          2      -1.0832779                             2_GWT-(1,12,9)
 Model                              3          2 -4.80045583E-02                             2_GWT-(1,16,8)
 Model                              4          2 -5.20559923E-03                             2_GWT-(1,16,8)
 Model                              5          2 -5.69823290E-04                             2_GWT-(1,16,8)
 Model                              6          2 -6.33310461E-05                             2_GWT-(1,16,8)
 Model                              7          2 -7.08998273E-06                             2_GWT-(1,16,8)
 Model                              8          1 -7.89404613E-07       *                     2_GWT-(1,16,8)
 ----------------------------------------------------------------------------------------------------------


 8 CALLS TO NUMERICAL SOLUTION IN TIME STEP 11 STRESS PERIOD 2
 15 TOTAL ITERATIONS
 
    Solving:  Stress period:     2    Time step:    12
 

 SLN_1 OUTER ITERATION SUMMARY
 ----------------------------------------------------------------------------------------------------------
                                OUTER      INNER                    STEP   MAXIMUM CHANGE MODEL-(CELLID) OR
 OUTER ITERATION STEP       ITERATION  ITERATION  MAXIMUM CHANGE SUCCESS             MODEL-PACKAGE-(NUMBER)
 ----------------------------------------------------------------------------------------------------------
 Model                              1         13      0.62623838                            1_GWF-(1,10,26)
 Model                              2          1 -2.23712959E-07       *                     1_GWF-(2,34,1)
 ----------------------------------------------------------------------------------------------------------


 2 CALLS TO NUMERICAL SOLUTION IN TIME STEP 12 STRESS PERIOD 2
 14 TOTAL ITERATIONS

 SLN_2 OUTER ITERATION SUMMARY
 ----------------------------------------------------------------------------------------------------------
                                OUTER      INNER                    STEP   MAXIMUM CHANGE MODEL-(CELLID) OR
 OUTER ITERATION STEP       ITERATION  ITERATION  MAXIMUM CHANGE SUCCESS             MODEL-PACKAGE-(NUMBER)
 ----------------------------------------------------------------------------------------------------------
 Model                              1          2       35.872077                             2_GWT-(1,14,9)
 Model                              2          2       1.0502082                             2_GWT-(1,15,8)
 Model                              3          2  5.20261724E-02                             2_GWT-(1,15,9)
 Model                              4          2 -5.40175042E-03                             2_GWT-(1,16,8)
 Model                              5          2 -5.87688755E-04                             2_GWT-(1,16,8)
 Model                              6          2 -6.55748120E-05                             2_GWT-(1,16,8)
 Model                              7          2 -7.41174127E-06                             2_GWT-(1,16,8)
 Model                              8          1 -8.34817403E-07       *                     2_GWT-(1,16,8)
 ----------------------------------------------------------------------------------------------------------


 8 CALLS TO NUMERICAL SOLUTION IN TIME STEP 12 STRESS PERIOD 2
 15 TOTAL ITERATIONS
 
    Solving:  Stress period:     2    Time step:    13
 

 SLN_1 OUTER ITERATION SUMMARY
 ----------------------------------------------------------------------------------------------------------
                                OUTER      INNER                    STEP   MAXIMUM CHANGE MODEL-(CELLID) OR
 OUTER ITERATION STEP       ITERATION  ITERATION  MAXIMUM CHANGE SUCCESS             MODEL-PACKAGE-(NUMBER)
 ----------------------------------------------------------------------------------------------------------
 Model                              1         13     -0.56795882                             1_GWF-(1,45,1)
 Model                              2          1 -2.02193405E-07       *                     1_GWF-(2,35,1)
 ----------------------------------------------------------------------------------------------------------


 2 CALLS TO NUMERICAL SOLUTION IN TIME STEP 13 STRESS PERIOD 2
 14 TOTAL ITERATIONS

 SLN_2 OUTER ITERATION SUMMARY
 ----------------------------------------------------------------------------------------------------------
                                OUTER      INNER                    STEP   MAXIMUM CHANGE MODEL-(CELLID) OR
 OUTER ITERATION STEP       ITERATION  ITERATION  MAXIMUM CHANGE SUCCESS             MODEL-PACKAGE-(NUMBER)
 ----------------------------------------------------------------------------------------------------------
 Model                              1          2      -34.559497                             2_GWT-(1,12,9)
 Model                              2          2       1.2424665                             2_GWT-(1,15,9)
 Model                              3          2  5.18858405E-02                             2_GWT-(1,15,9)
 Model                              4          2 -5.06741294E-03                             2_GWT-(1,16,9)
 Model                              5          2 -5.34672050E-04                             2_GWT-(1,16,9)
 Model                              6          2 -5.81650698E-05                             2_GWT-(1,16,9)
 Model                              7          2 -6.57159460E-06                             2_GWT-(1,16,8)
 Model                              8          1 -7.43149922E-07       *                     2_GWT-(1,16,8)
 ----------------------------------------------------------------------------------------------------------


 8 CALLS TO NUMERICAL SOLUTION IN TIME STEP 13 STRESS PERIOD 2
 15 TOTAL ITERATIONS
 
    Solving:  Stress period:     2    Time step:    14
 

 SLN_1 OUTER ITERATION SUMMARY
 ----------------------------------------------------------------------------------------------------------
                                OUTER      INNER                    STEP   MAXIMUM CHANGE MODEL-(CELLID) OR
 OUTER ITERATION STEP       ITERATION  ITERATION  MAXIMUM CHANGE SUCCESS             MODEL-PACKAGE-(NUMBER)
 ----------------------------------------------------------------------------------------------------------
 Model                              1         13     -0.52058754                             1_GWF-(1,45,1)
 Model                              2          1 -1.80902589E-07       *                     1_GWF-(2,35,1)
 ----------------------------------------------------------------------------------------------------------


 2 CALLS TO NUMERICAL SOLUTION IN TIME STEP 14 STRESS PERIOD 2
 14 TOTAL ITERATIONS

 SLN_2 OUTER ITERATION SUMMARY
 ----------------------------------------------------------------------------------------------------------
                                OUTER      INNER                    STEP   MAXIMUM CHANGE MODEL-(CELLID) OR
 OUTER ITERATION STEP       ITERATION  ITERATION  MAXIMUM CHANGE SUCCESS             MODEL-PACKAGE-(NUMBER)
 ----------------------------------------------------------------------------------------------------------
 Model                              1          2      -33.251506                             2_GWT-(1,12,9)
 Model                              2          2       1.3766991                             2_GWT-(1,15,9)
 Model                              3          2  4.58653901E-02                             2_GWT-(1,15,9)
 Model                              4          2 -4.24617077E-03                             2_GWT-(1,16,9)
 Model                              5          2 -4.33579673E-04                             2_GWT-(1,16,9)
 Model                              6          2 -4.63015624E-05                             2_GWT-(1,16,9)
 Model                              7          2 -5.10979332E-06                             2_GWT-(1,16,9)
 Model                              8          1 -5.66304575E-07       *                     2_GWT-(1,16,9)
 ----------------------------------------------------------------------------------------------------------


 8 CALLS TO NUMERICAL SOLUTION IN TIME STEP 14 STRESS PERIOD 2
 15 TOTAL ITERATIONS
 
    Solving:  Stress period:     2    Time step:    15
 

 SLN_1 OUTER ITERATION SUMMARY
 ----------------------------------------------------------------------------------------------------------
                                OUTER      INNER                    STEP   MAXIMUM CHANGE MODEL-(CELLID) OR
 OUTER ITERATION STEP       ITERATION  ITERATION  MAXIMUM CHANGE SUCCESS             MODEL-PACKAGE-(NUMBER)
 ----------------------------------------------------------------------------------------------------------
 Model                              1         13     -0.47685061                             1_GWF-(1,44,1)
 Model                              2          1 -1.61331627E-07       *                     1_GWF-(2,36,1)
 ----------------------------------------------------------------------------------------------------------


 2 CALLS TO NUMERICAL SOLUTION IN TIME STEP 15 STRESS PERIOD 2
 14 TOTAL ITERATIONS

 SLN_2 OUTER ITERATION SUMMARY
 ----------------------------------------------------------------------------------------------------------
                                OUTER      INNER                    STEP   MAXIMUM CHANGE MODEL-(CELLID) OR
 OUTER ITERATION STEP       ITERATION  ITERATION  MAXIMUM CHANGE SUCCESS             MODEL-PACKAGE-(NUMBER)
 ----------------------------------------------------------------------------------------------------------
 Model                              1          2      -31.852001                             2_GWT-(1,12,9)
 Model                              2          2       1.4523487                             2_GWT-(1,15,9)
 Model                              3          2 -3.70405817E-02                             2_GWT-(1,16,9)
 Model                              4          2 -3.07992310E-03                             2_GWT-(1,16,9)
 Model                              5          2 -2.96400452E-04                             2_GWT-(1,16,9)
 Model                              6          2 -3.12502255E-05                             2_GWT-(1,17,7)
 Model                              7          2 -3.48497150E-06                             2_GWT-(1,17,7)
 Model                              8          1 -3.87864961E-07       *                     2_GWT-(1,17,7)
 ----------------------------------------------------------------------------------------------------------


 8 CALLS TO NUMERICAL SOLUTION IN TIME STEP 15 STRESS PERIOD 2
 15 TOTAL ITERATIONS
 
    Solving:  Stress period:     2    Time step:    16
 

 SLN_1 OUTER ITERATION SUMMARY
 ----------------------------------------------------------------------------------------------------------
                                OUTER      INNER                    STEP   MAXIMUM CHANGE MODEL-(CELLID) OR
 OUTER ITERATION STEP       ITERATION  ITERATION  MAXIMUM CHANGE SUCCESS             MODEL-PACKAGE-(NUMBER)
 ----------------------------------------------------------------------------------------------------------
 Model                              1         13     -0.43638892                             1_GWF-(1,44,1)
 Model                              2          1 -1.45063495E-07       *                     1_GWF-(2,36,1)
 ----------------------------------------------------------------------------------------------------------


 2 CALLS TO NUMERICAL SOLUTION IN TIME STEP 16 STRESS PERIOD 2
 14 TOTAL ITERATIONS

 SLN_2 OUTER ITERATION SUMMARY
 ----------------------------------------------------------------------------------------------------------
                                OUTER      INNER                    STEP   MAXIMUM CHANGE MODEL-(CELLID) OR
 OUTER ITERATION STEP       ITERATION  ITERATION  MAXIMUM CHANGE SUCCESS             MODEL-PACKAGE-(NUMBER)
 ----------------------------------------------------------------------------------------------------------
 Model                              1          2      -30.401137                             2_GWT-(1,12,9)
 Model                              2          2       1.4742794                             2_GWT-(1,15,9)
 Model                              3          2 -2.63061009E-02                             2_GWT-(1,17,7)
 Model                              4          2 -2.49161023E-03                             2_GWT-(1,17,7)
 Model                              5          2 -2.50292975E-04                             2_GWT-(1,17,7)
 Model                              6          2 -2.64395263E-05                             2_GWT-(1,17,7)
 Model                              7          2 -2.91204465E-06                             2_GWT-(1,17,7)
 Model                              8          1 -3.09305133E-07       *                     2_GWT-(1,17,7)
 ----------------------------------------------------------------------------------------------------------


 8 CALLS TO NUMERICAL SOLUTION IN TIME STEP 16 STRESS PERIOD 2
 15 TOTAL ITERATIONS
 
    Solving:  Stress period:     2    Time step:    17
 

 SLN_1 OUTER ITERATION SUMMARY
 ----------------------------------------------------------------------------------------------------------
                                OUTER      INNER                    STEP   MAXIMUM CHANGE MODEL-(CELLID) OR
 OUTER ITERATION STEP       ITERATION  ITERATION  MAXIMUM CHANGE SUCCESS             MODEL-PACKAGE-(NUMBER)
 ----------------------------------------------------------------------------------------------------------
 Model                              1         13     -0.39897664                             1_GWF-(1,44,1)
 Model                              2          1 -1.29957698E-07       *                     1_GWF-(2,36,1)
 ----------------------------------------------------------------------------------------------------------


 2 CALLS TO NUMERICAL SOLUTION IN TIME STEP 17 STRESS PERIOD 2
 14 TOTAL ITERATIONS

 SLN_2 OUTER ITERATION SUMMARY
 ----------------------------------------------------------------------------------------------------------
                                OUTER      INNER                    STEP   MAXIMUM CHANGE MODEL-(CELLID) OR
 OUTER ITERATION STEP       ITERATION  ITERATION  MAXIMUM CHANGE SUCCESS             MODEL-PACKAGE-(NUMBER)
 ----------------------------------------------------------------------------------------------------------
 Model                              1          2      -28.929971                             2_GWT-(1,12,9)
 Model                              2          2       1.4488226                             2_GWT-(1,15,9)
 Model                              3          2 -2.28069855E-02                             2_GWT-(1,17,7)
 Model                              4          2 -2.01412072E-03                             2_GWT-(1,17,7)
 Model                              5          2 -1.93903126E-04                             2_GWT-(1,17,7)
 Model                              6          2 -1.98419042E-05                             2_GWT-(1,17,7)
 Model                              7          2 -2.13852008E-06                             2_GWT-(1,17,7)
 Model                              8          1  2.24381671E-07       *                     2_GWT-(1,18,7)
 ----------------------------------------------------------------------------------------------------------


 8 CALLS TO NUMERICAL SOLUTION IN TIME STEP 17 STRESS PERIOD 2
 15 TOTAL ITERATIONS
 
    Solving:  Stress period:     2    Time step:    18
 

 SLN_1 OUTER ITERATION SUMMARY
 ----------------------------------------------------------------------------------------------------------
                                OUTER      INNER                    STEP   MAXIMUM CHANGE MODEL-(CELLID) OR
 OUTER ITERATION STEP       ITERATION  ITERATION  MAXIMUM CHANGE SUCCESS             MODEL-PACKAGE-(NUMBER)
 ----------------------------------------------------------------------------------------------------------
 Model                              1         13     -0.36446292                             1_GWF-(1,44,1)
 Model                              2          1 -1.16178853E-07       *                     1_GWF-(2,36,1)
 ----------------------------------------------------------------------------------------------------------


 2 CALLS TO NUMERICAL SOLUTION IN TIME STEP 18 STRESS PERIOD 2
 14 TOTAL ITERATIONS

 SLN_2 OUTER ITERATION SUMMARY
 ----------------------------------------------------------------------------------------------------------
                                OUTER      INNER                    STEP   MAXIMUM CHANGE MODEL-(CELLID) OR
 OUTER ITERATION STEP       ITERATION  ITERATION  MAXIMUM CHANGE SUCCESS             MODEL-PACKAGE-(NUMBER)
 ----------------------------------------------------------------------------------------------------------
 Model                              1          2      -27.462234                             2_GWT-(1,12,9)
 Model                              2          2       1.3787752                             2_GWT-(1,15,9)
 Model                              3          2 -2.56181539E-02                             2_GWT-(1,17,8)
 Model                              4          2 -2.55451070E-03                             2_GWT-(1,17,8)
 Model                              5          2 -2.91489006E-04                             2_GWT-(1,17,8)
 Model                              6          2 -3.37703533E-05                             2_GWT-(1,17,8)
 Model                              7          2 -3.95815947E-06                             2_GWT-(1,17,8)
 Model                              8          1 -4.74017511E-07       *                     2_GWT-(1,17,9)
 ----------------------------------------------------------------------------------------------------------


 8 CALLS TO NUMERICAL SOLUTION IN TIME STEP 18 STRESS PERIOD 2
 15 TOTAL ITERATIONS
 
    Solving:  Stress period:     2    Time step:    19
 

 SLN_1 OUTER ITERATION SUMMARY
 ----------------------------------------------------------------------------------------------------------
                                OUTER      INNER                    STEP   MAXIMUM CHANGE MODEL-(CELLID) OR
 OUTER ITERATION STEP       ITERATION  ITERATION  MAXIMUM CHANGE SUCCESS             MODEL-PACKAGE-(NUMBER)
 ----------------------------------------------------------------------------------------------------------
 Model                              1         13     -0.33268220                             1_GWF-(1,44,1)
 Model                              2          1 -1.03721050E-07       *                     1_GWF-(2,36,1)
 ----------------------------------------------------------------------------------------------------------


 2 CALLS TO NUMERICAL SOLUTION IN TIME STEP 19 STRESS PERIOD 2
 14 TOTAL ITERATIONS

 SLN_2 OUTER ITERATION SUMMARY
 ----------------------------------------------------------------------------------------------------------
                                OUTER      INNER                    STEP   MAXIMUM CHANGE MODEL-(CELLID) OR
 OUTER ITERATION STEP       ITERATION  ITERATION  MAXIMUM CHANGE SUCCESS             MODEL-PACKAGE-(NUMBER)
 ----------------------------------------------------------------------------------------------------------
 Model                              1          2       27.185899                             2_GWT-(1,15,9)
 Model                              2          2       1.2821391                             2_GWT-(1,15,9)
 Model                              3          2 -3.11039550E-02                             2_GWT-(1,17,8)
 Model                              4          2 -3.49171922E-03                             2_GWT-(1,17,8)
 Model                              5          2 -4.11870194E-04                             2_GWT-(1,17,8)
 Model                              6          2 -4.85563497E-05                             2_GWT-(1,17,8)
 Model                              7          2 -5.91776267E-06                             2_GWT-(1,17,9)
 Model                              8          1 -7.25199675E-07       *                     2_GWT-(1,17,9)
 ----------------------------------------------------------------------------------------------------------


 8 CALLS TO NUMERICAL SOLUTION IN TIME STEP 19 STRESS PERIOD 2
 15 TOTAL ITERATIONS
 
    Solving:  Stress period:     2    Time step:    20
 

 SLN_1 OUTER ITERATION SUMMARY
 ----------------------------------------------------------------------------------------------------------
                                OUTER      INNER                    STEP   MAXIMUM CHANGE MODEL-(CELLID) OR
 OUTER ITERATION STEP       ITERATION  ITERATION  MAXIMUM CHANGE SUCCESS             MODEL-PACKAGE-(NUMBER)
 ----------------------------------------------------------------------------------------------------------
 Model                              1         13     -0.30346344                             1_GWF-(1,44,1)
 Model                              2          1 -9.24992491E-08       *                     1_GWF-(2,36,1)
 ----------------------------------------------------------------------------------------------------------


 2 CALLS TO NUMERICAL SOLUTION IN TIME STEP 20 STRESS PERIOD 2
 14 TOTAL ITERATIONS

 SLN_2 OUTER ITERATION SUMMARY
 ----------------------------------------------------------------------------------------------------------
                                OUTER      INNER                    STEP   MAXIMUM CHANGE MODEL-(CELLID) OR
 OUTER ITERATION STEP       ITERATION  ITERATION  MAXIMUM CHANGE SUCCESS             MODEL-PACKAGE-(NUMBER)
 ----------------------------------------------------------------------------------------------------------
 Model                              1          2       27.244727                             2_GWT-(1,15,9)
 Model                              2          2      -1.1807959                             2_GWT-(1,14,9)
 Model                              3          2 -3.98833050E-02                             2_GWT-(1,15,9)
 Model                              4          2 -4.18631374E-03                             2_GWT-(1,17,8)
 Model                              5          2 -4.95609986E-04                             2_GWT-(1,17,8)
 Model                              6          2 -5.90727756E-05                             2_GWT-(1,17,9)
 Model                              7          2 -7.29047310E-06                             2_GWT-(1,17,9)
 Model                              8          1 -8.97528652E-07       *                     2_GWT-(1,17,9)
 ----------------------------------------------------------------------------------------------------------


 8 CALLS TO NUMERICAL SOLUTION IN TIME STEP 20 STRESS PERIOD 2
 15 TOTAL ITERATIONS
 
    Solving:  Stress period:     2    Time step:    21
 

 SLN_1 OUTER ITERATION SUMMARY
 ----------------------------------------------------------------------------------------------------------
                                OUTER      INNER                    STEP   MAXIMUM CHANGE MODEL-(CELLID) OR
 OUTER ITERATION STEP       ITERATION  ITERATION  MAXIMUM CHANGE SUCCESS             MODEL-PACKAGE-(NUMBER)
 ----------------------------------------------------------------------------------------------------------
 Model                              1         12     -0.27663591                             1_GWF-(1,44,1)
 Model                              2          1  3.19050741E-07       *                     1_GWF-(2,38,1)
 ----------------------------------------------------------------------------------------------------------


 2 CALLS TO NUMERICAL SOLUTION IN TIME STEP 21 STRESS PERIOD 2
 13 TOTAL ITERATIONS

 SLN_2 OUTER ITERATION SUMMARY
 ----------------------------------------------------------------------------------------------------------
                                OUTER      INNER                    STEP   MAXIMUM CHANGE MODEL-(CELLID) OR
 OUTER ITERATION STEP       ITERATION  ITERATION  MAXIMUM CHANGE SUCCESS             MODEL-PACKAGE-(NUMBER)
 ----------------------------------------------------------------------------------------------------------
 Model                              1          2       26.993430                             2_GWT-(1,15,9)
 Model                              2          2      -1.1762009                             2_GWT-(1,14,9)
 Model                              3          2 -5.27472897E-02                             2_GWT-(1,15,9)
 Model                              4          2 -4.62812119E-03                             2_GWT-(1,17,8)
 Model                              5          2 -5.38466042E-04                             2_GWT-(1,17,8)
 Model                              6          2 -6.47754277E-05                             2_GWT-(1,17,9)
 Model                              7          2 -7.92685915E-06                             2_GWT-(1,17,9)
 Model                              8          1 -9.74911703E-07       *                     2_GWT-(1,17,9)
 ----------------------------------------------------------------------------------------------------------


 8 CALLS TO NUMERICAL SOLUTION IN TIME STEP 21 STRESS PERIOD 2
 15 TOTAL ITERATIONS
 
    Solving:  Stress period:     2    Time step:    22
 

 SLN_1 OUTER ITERATION SUMMARY
 ----------------------------------------------------------------------------------------------------------
                                OUTER      INNER                    STEP   MAXIMUM CHANGE MODEL-(CELLID) OR
 OUTER ITERATION STEP       ITERATION  ITERATION  MAXIMUM CHANGE SUCCESS             MODEL-PACKAGE-(NUMBER)
 ----------------------------------------------------------------------------------------------------------
 Model                              1         12     -0.25203267                             1_GWF-(1,44,1)
 Model                              2          1  2.87867806E-07       *                     1_GWF-(2,38,1)
 ----------------------------------------------------------------------------------------------------------


 2 CALLS TO NUMERICAL SOLUTION IN TIME STEP 22 STRESS PERIOD 2
 13 TOTAL ITERATIONS

 SLN_2 OUTER ITERATION SUMMARY
 ----------------------------------------------------------------------------------------------------------
                                OUTER      INNER                    STEP   MAXIMUM CHANGE MODEL-(CELLID) OR
 OUTER ITERATION STEP       ITERATION  ITERATION  MAXIMUM CHANGE SUCCESS             MODEL-PACKAGE-(NUMBER)
 ----------------------------------------------------------------------------------------------------------
 Model                              1          2       26.453560                             2_GWT-(1,15,9)
 Model                              2          2      -1.1676035                             2_GWT-(1,14,9)
 Model                              3          2 -6.42183544E-02                             2_GWT-(1,15,9)
 Model                              4          2 -4.81897204E-03                             2_GWT-(1,17,9)
 Model                              5          2 -5.45285948E-04                             2_GWT-(1,17,9)
 Model                              6          2 -6.47902670E-05                             2_GWT-(1,17,9)
 Model                              7          2 -7.83206809E-06                             2_GWT-(1,17,9)
 Model                              8          1 -9.60765590E-07       *                     2_GWT-(1,17,9)
 ----------------------------------------------------------------------------------------------------------


 8 CALLS TO NUMERICAL SOLUTION IN TIME STEP 22 STRESS PERIOD 2
 15 TOTAL ITERATIONS
 
    Solving:  Stress period:     2    Time step:    23
 

 SLN_1 OUTER ITERATION SUMMARY
 ----------------------------------------------------------------------------------------------------------
                                OUTER      INNER                    STEP   MAXIMUM CHANGE MODEL-(CELLID) OR
 OUTER ITERATION STEP       ITERATION  ITERATION  MAXIMUM CHANGE SUCCESS             MODEL-PACKAGE-(NUMBER)
 ----------------------------------------------------------------------------------------------------------
 Model                              1         12     -0.22949289                             1_GWF-(1,44,1)
 Model                              2          1  2.59563876E-07       *                     1_GWF-(2,38,1)
 ----------------------------------------------------------------------------------------------------------


 2 CALLS TO NUMERICAL SOLUTION IN TIME STEP 23 STRESS PERIOD 2
 13 TOTAL ITERATIONS

 SLN_2 OUTER ITERATION SUMMARY
 ----------------------------------------------------------------------------------------------------------
                                OUTER      INNER                    STEP   MAXIMUM CHANGE MODEL-(CELLID) OR
 OUTER ITERATION STEP       ITERATION  ITERATION  MAXIMUM CHANGE SUCCESS             MODEL-PACKAGE-(NUMBER)
 ----------------------------------------------------------------------------------------------------------
 Model                              1          2       25.652713                             2_GWT-(1,15,9)
 Model                              2          2      -1.1610504                             2_GWT-(1,14,9)
 Model                              3          2 -7.47675888E-02                             2_GWT-(1,15,9)
 Model                              4          2 -4.95531799E-03                             2_GWT-(1,17,9)
 Model                              5          2 -5.47070756E-04                             2_GWT-(1,17,9)
 Model                              6          2 -6.50137997E-05                             2_GWT-(1,17,9)
 Model                              7          2 -7.85826970E-06                             2_GWT-(1,17,9)
 Model                              8          1 -9.73950677E-07       *                     2_GWT-(1,17,9)
 ----------------------------------------------------------------------------------------------------------


 8 CALLS TO NUMERICAL SOLUTION IN TIME STEP 23 STRESS PERIOD 2
 15 TOTAL ITERATIONS
 
    Solving:  Stress period:     2    Time step:    24
 

 SLN_1 OUTER ITERATION SUMMARY
 ----------------------------------------------------------------------------------------------------------
                                OUTER      INNER                    STEP   MAXIMUM CHANGE MODEL-(CELLID) OR
 OUTER ITERATION STEP       ITERATION  ITERATION  MAXIMUM CHANGE SUCCESS             MODEL-PACKAGE-(NUMBER)
 ----------------------------------------------------------------------------------------------------------
 Model                              1         12     -0.20886298                             1_GWF-(1,44,1)
 Model                              2          1  2.33874289E-07       *                     1_GWF-(2,38,1)
 ----------------------------------------------------------------------------------------------------------


 2 CALLS TO NUMERICAL SOLUTION IN TIME STEP 24 STRESS PERIOD 2
 13 TOTAL ITERATIONS

 SLN_2 OUTER ITERATION SUMMARY
 ----------------------------------------------------------------------------------------------------------
                                OUTER      INNER                    STEP   MAXIMUM CHANGE MODEL-(CELLID) OR
 OUTER ITERATION STEP       ITERATION  ITERATION  MAXIMUM CHANGE SUCCESS             MODEL-PACKAGE-(NUMBER)
 ----------------------------------------------------------------------------------------------------------
 Model                              1          2       24.623587                             2_GWT-(1,15,9)
 Model                              2          2      0.87892739                             2_GWT-(1,16,9)
 Model                              3          2  6.12551344E-02                             2_GWT-(1,16,9)
 Model                              4          2 -5.33737584E-03                             2_GWT-(1,13,8)
 Model                              5          2 -6.39683954E-04                             2_GWT-(1,13,8)
 Model                              6          2 -7.36537932E-05                             2_GWT-(1,13,8)
 Model                              7          2 -8.55812095E-06                             2_GWT-(1,13,8)
 Model                              8          1 -9.83460836E-07       *                     2_GWT-(1,13,8)
 ----------------------------------------------------------------------------------------------------------


 8 CALLS TO NUMERICAL SOLUTION IN TIME STEP 24 STRESS PERIOD 2
 15 TOTAL ITERATIONS
 
    Solving:  Stress period:     2    Time step:    25
 

 SLN_1 OUTER ITERATION SUMMARY
 ----------------------------------------------------------------------------------------------------------
                                OUTER      INNER                    STEP   MAXIMUM CHANGE MODEL-(CELLID) OR
 OUTER ITERATION STEP       ITERATION  ITERATION  MAXIMUM CHANGE SUCCESS             MODEL-PACKAGE-(NUMBER)
 ----------------------------------------------------------------------------------------------------------
 Model                              1         12     -0.18999737                             1_GWF-(1,44,1)
 Model                              2          1  2.10581220E-07       *                     1_GWF-(2,38,1)
 ----------------------------------------------------------------------------------------------------------


 2 CALLS TO NUMERICAL SOLUTION IN TIME STEP 25 STRESS PERIOD 2
 13 TOTAL ITERATIONS

 SLN_2 OUTER ITERATION SUMMARY
 ----------------------------------------------------------------------------------------------------------
                                OUTER      INNER                    STEP   MAXIMUM CHANGE MODEL-(CELLID) OR
 OUTER ITERATION STEP       ITERATION  ITERATION  MAXIMUM CHANGE SUCCESS             MODEL-PACKAGE-(NUMBER)
 ----------------------------------------------------------------------------------------------------------
 Model                              1          2       23.275159                             2_GWT-(1,15,9)
 Model                              2          2      -1.3236593                             2_GWT-(1,13,9)
 Model                              3          2     -0.13059425                             2_GWT-(1,13,9)
 Model                              4          2 -1.39804093E-02                             2_GWT-(1,13,9)
 Model                              5          2 -1.53911332E-03                             2_GWT-(1,13,9)
 Model                              6          2 -1.67031917E-04                             2_GWT-(1,13,9)
 Model                              7          2 -1.82359103E-05                             2_GWT-(1,13,9)
 Model                              8          2 -1.98686325E-06                             2_GWT-(1,13,9)
 Model                              9          1 -1.88520971E-07       *                     2_GWT-(1,13,9)
 ----------------------------------------------------------------------------------------------------------


 9 CALLS TO NUMERICAL SOLUTION IN TIME STEP 25 STRESS PERIOD 2
 17 TOTAL ITERATIONS
 
    Solving:  Stress period:     2    Time step:    26
 

 SLN_1 OUTER ITERATION SUMMARY
 ----------------------------------------------------------------------------------------------------------
                                OUTER      INNER                    STEP   MAXIMUM CHANGE MODEL-(CELLID) OR
 OUTER ITERATION STEP       ITERATION  ITERATION  MAXIMUM CHANGE SUCCESS             MODEL-PACKAGE-(NUMBER)
 ----------------------------------------------------------------------------------------------------------
 Model                              1         12     -0.17275880                             1_GWF-(1,44,1)
 Model                              2          1  1.89463208E-07       *                     1_GWF-(2,38,1)
 ----------------------------------------------------------------------------------------------------------


 2 CALLS TO NUMERICAL SOLUTION IN TIME STEP 26 STRESS PERIOD 2
 13 TOTAL ITERATIONS

 SLN_2 OUTER ITERATION SUMMARY
 ----------------------------------------------------------------------------------------------------------
                                OUTER      INNER                    STEP   MAXIMUM CHANGE MODEL-(CELLID) OR
 OUTER ITERATION STEP       ITERATION  ITERATION  MAXIMUM CHANGE SUCCESS             MODEL-PACKAGE-(NUMBER)
 ----------------------------------------------------------------------------------------------------------
 Model                              1          2       21.286091                             2_GWT-(1,15,9)
 Model                              2          2      -1.2874151                             2_GWT-(1,13,9)
 Model                              3          2     -0.11279601                             2_GWT-(1,13,9)
 Model                              4          2 -1.08577360E-02                             2_GWT-(1,13,9)
 Model                              5          2 -1.07862941E-03                             2_GWT-(1,13,9)
 Model                              6          2 -1.05181751E-04                             2_GWT-(1,13,9)
 Model                              7          2 -1.03506663E-05                             2_GWT-(1,13,9)
 Model                              8          2 -1.01518151E-06                             2_GWT-(1,13,9)
 Model                              9          1 -6.64199433E-08       *                     2_GWT-(1,13,9)
 ----------------------------------------------------------------------------------------------------------


 9 CALLS TO NUMERICAL SOLUTION IN TIME STEP 26 STRESS PERIOD 2
 17 TOTAL ITERATIONS
 
    Solving:  Stress period:     2    Time step:    27
 

 SLN_1 OUTER ITERATION SUMMARY
 ----------------------------------------------------------------------------------------------------------
                                OUTER      INNER                    STEP   MAXIMUM CHANGE MODEL-(CELLID) OR
 OUTER ITERATION STEP       ITERATION  ITERATION  MAXIMUM CHANGE SUCCESS             MODEL-PACKAGE-(NUMBER)
 ----------------------------------------------------------------------------------------------------------
 Model                              1         12     -0.15701845                             1_GWF-(1,44,1)
 Model                              2          1  1.70324256E-07       *                     1_GWF-(2,38,1)
[...]

 SLN_2 OUTER ITERATION SUMMARY
 ----------------------------------------------------------------------------------------------------------
                                OUTER      INNER                    STEP   MAXIMUM CHANGE MODEL-(CELLID) OR
 OUTER ITERATION STEP       ITERATION  ITERATION  MAXIMUM CHANGE SUCCESS             MODEL-PACKAGE-(NUMBER)
 ----------------------------------------------------------------------------------------------------------
 Model                              1          2     -0.35119954                            2_GWT-(1,50,13)
 Model                              2          2 -3.59351475E-03                            2_GWT-(1,50,13)
 Model                              3          2  4.87983059E-05                            2_GWT-(1,49,10)
 Model                              4          2 -3.59054654E-06                            2_GWT-(1,49,10)
 Model                              5          1  2.10716015E-07       *                    2_GWT-(1,49,10)
 ----------------------------------------------------------------------------------------------------------


 5 CALLS TO NUMERICAL SOLUTION IN TIME STEP 355 STRESS PERIOD 3
 9 TOTAL ITERATIONS
 
    Solving:  Stress period:     3    Time step:   356
 

 SLN_1 OUTER ITERATION SUMMARY
 ----------------------------------------------------------------------------------------------------------
                                OUTER      INNER                    STEP   MAXIMUM CHANGE MODEL-(CELLID) OR
 OUTER ITERATION STEP       ITERATION  ITERATION  MAXIMUM CHANGE SUCCESS             MODEL-PACKAGE-(NUMBER)
 ----------------------------------------------------------------------------------------------------------
 Model                              1          1  5.86624083E-10       *                     1_GWF-(1,27,1)
 ----------------------------------------------------------------------------------------------------------


 1 CALLS TO NUMERICAL SOLUTION IN TIME STEP 356 STRESS PERIOD 3
 1 TOTAL ITERATIONS

 SLN_2 OUTER ITERATION SUMMARY
 ----------------------------------------------------------------------------------------------------------
                                OUTER      INNER                    STEP   MAXIMUM CHANGE MODEL-(CELLID) OR
 OUTER ITERATION STEP       ITERATION  ITERATION  MAXIMUM CHANGE SUCCESS             MODEL-PACKAGE-(NUMBER)
 ----------------------------------------------------------------------------------------------------------
 Model                              1          2     -0.34092716                            2_GWT-(1,50,13)
 Model                              2          2 -3.49106045E-03                            2_GWT-(1,50,13)
 Model                              3          2  4.62385000E-05                            2_GWT-(1,49,10)
 Model                              4          2 -3.40458099E-06                            2_GWT-(1,49,10)
 Model                              5          1  1.89923897E-07       *                    2_GWT-(1,49,10)
 ----------------------------------------------------------------------------------------------------------


 5 CALLS TO NUMERICAL SOLUTION IN TIME STEP 356 STRESS PERIOD 3
 9 TOTAL ITERATIONS
 
    Solving:  Stress period:     3    Time step:   357
 

 SLN_1 OUTER ITERATION SUMMARY
 ----------------------------------------------------------------------------------------------------------
                                OUTER      INNER                    STEP   MAXIMUM CHANGE MODEL-(CELLID) OR
 OUTER ITERATION STEP       ITERATION  ITERATION  MAXIMUM CHANGE SUCCESS             MODEL-PACKAGE-(NUMBER)
 ----------------------------------------------------------------------------------------------------------
 Model                              1          1  5.82986104E-10       *                     1_GWF-(1,27,1)
 ----------------------------------------------------------------------------------------------------------


 1 CALLS TO NUMERICAL SOLUTION IN TIME STEP 357 STRESS PERIOD 3
 1 TOTAL ITERATIONS

 SLN_2 OUTER ITERATION SUMMARY
 ----------------------------------------------------------------------------------------------------------
                                OUTER      INNER                    STEP   MAXIMUM CHANGE MODEL-(CELLID) OR
 OUTER ITERATION STEP       ITERATION  ITERATION  MAXIMUM CHANGE SUCCESS             MODEL-PACKAGE-(NUMBER)
 ----------------------------------------------------------------------------------------------------------
 Model                              1          2     -0.33088739                            2_GWT-(1,50,13)
 Model                              2          2 -3.39068957E-03                            2_GWT-(1,50,13)
 Model                              3          2  4.37849237E-05                            2_GWT-(1,49,10)
 Model                              4          2 -3.23636383E-06                            2_GWT-(1,49,10)
 Model                              5          1  1.78182437E-07       *                    2_GWT-(1,49,10)
 ----------------------------------------------------------------------------------------------------------


 5 CALLS TO NUMERICAL SOLUTION IN TIME STEP 357 STRESS PERIOD 3
 9 TOTAL ITERATIONS
 
    Solving:  Stress period:     3    Time step:   358
 

 SLN_1 OUTER ITERATION SUMMARY
 ----------------------------------------------------------------------------------------------------------
                                OUTER      INNER                    STEP   MAXIMUM CHANGE MODEL-(CELLID) OR
 OUTER ITERATION STEP       ITERATION  ITERATION  MAXIMUM CHANGE SUCCESS             MODEL-PACKAGE-(NUMBER)
 ----------------------------------------------------------------------------------------------------------
 Model                              1          1  5.78438630E-10       *                     1_GWF-(1,27,1)
 ----------------------------------------------------------------------------------------------------------


 1 CALLS TO NUMERICAL SOLUTION IN TIME STEP 358 STRESS PERIOD 3
 1 TOTAL ITERATIONS

 SLN_2 OUTER ITERATION SUMMARY
 ----------------------------------------------------------------------------------------------------------
                                OUTER      INNER                    STEP   MAXIMUM CHANGE MODEL-(CELLID) OR
 OUTER ITERATION STEP       ITERATION  ITERATION  MAXIMUM CHANGE SUCCESS             MODEL-PACKAGE-(NUMBER)
 ----------------------------------------------------------------------------------------------------------
 Model                              1          2     -0.32107842                            2_GWT-(1,50,13)
 Model                              2          2 -3.29240679E-03                            2_GWT-(1,50,13)
 Model                              3          2  4.14003849E-05                            2_GWT-(1,49,10)
 Model                              4          2 -3.04315528E-06                            2_GWT-(1,49,10)
 Model                              5          1  1.63544840E-07       *                    2_GWT-(1,49,10)
 ----------------------------------------------------------------------------------------------------------


 5 CALLS TO NUMERICAL SOLUTION IN TIME STEP 358 STRESS PERIOD 3
 9 TOTAL ITERATIONS
 
    Solving:  Stress period:     3    Time step:   359
 

 SLN_1 OUTER ITERATION SUMMARY
 ----------------------------------------------------------------------------------------------------------
                                OUTER      INNER                    STEP   MAXIMUM CHANGE MODEL-(CELLID) OR
 OUTER ITERATION STEP       ITERATION  ITERATION  MAXIMUM CHANGE SUCCESS             MODEL-PACKAGE-(NUMBER)
 ----------------------------------------------------------------------------------------------------------
 Model                              1          1  5.74345904E-10       *                     1_GWF-(1,27,1)
 ----------------------------------------------------------------------------------------------------------


 1 CALLS TO NUMERICAL SOLUTION IN TIME STEP 359 STRESS PERIOD 3
 1 TOTAL ITERATIONS

 SLN_2 OUTER ITERATION SUMMARY
 ----------------------------------------------------------------------------------------------------------
                                OUTER      INNER                    STEP   MAXIMUM CHANGE MODEL-(CELLID) OR
 OUTER ITERATION STEP       ITERATION  ITERATION  MAXIMUM CHANGE SUCCESS             MODEL-PACKAGE-(NUMBER)
 ----------------------------------------------------------------------------------------------------------
 Model                              1          2     -0.31149825                            2_GWT-(1,50,13)
 Model                              2          2 -3.19621302E-03                            2_GWT-(1,50,13)
 Model                              3          2  3.84751486E-05                            2_GWT-(1,49,10)
 Model                              4          2 -3.00827563E-06                            2_GWT-(1,49,10)
 Model                              5          1  1.82944536E-07       *                    2_GWT-(1,49,10)
 ----------------------------------------------------------------------------------------------------------


 5 CALLS TO NUMERICAL SOLUTION IN TIME STEP 359 STRESS PERIOD 3
 9 TOTAL ITERATIONS
 
    Solving:  Stress period:     3    Time step:   360
 

 SLN_1 OUTER ITERATION SUMMARY
 ----------------------------------------------------------------------------------------------------------
                                OUTER      INNER                    STEP   MAXIMUM CHANGE MODEL-(CELLID) OR
 OUTER ITERATION STEP       ITERATION  ITERATION  MAXIMUM CHANGE SUCCESS             MODEL-PACKAGE-(NUMBER)
 ----------------------------------------------------------------------------------------------------------
 Model                              1          1  5.70253178E-10       *                     1_GWF-(1,28,1)
 ----------------------------------------------------------------------------------------------------------


 1 CALLS TO NUMERICAL SOLUTION IN TIME STEP 360 STRESS PERIOD 3
 1 TOTAL ITERATIONS

 SLN_2 OUTER ITERATION SUMMARY
 ----------------------------------------------------------------------------------------------------------
                                OUTER      INNER                    STEP   MAXIMUM CHANGE MODEL-(CELLID) OR
 OUTER ITERATION STEP       ITERATION  ITERATION  MAXIMUM CHANGE SUCCESS             MODEL-PACKAGE-(NUMBER)
 ----------------------------------------------------------------------------------------------------------
 Model                              1          2     -0.30214469                            2_GWT-(1,50,13)
 Model                              2          2 -3.10210596E-03                            2_GWT-(1,50,13)
 Model                              3          2  3.62714702E-05                            2_GWT-(1,49,10)
 Model                              4          2 -2.85772454E-06                            2_GWT-(1,49,10)
 Model                              5          1  1.58075216E-07       *                    2_GWT-(1,49,10)
 ----------------------------------------------------------------------------------------------------------


 5 CALLS TO NUMERICAL SOLUTION IN TIME STEP 360 STRESS PERIOD 3
 9 TOTAL ITERATIONS
 
    Solving:  Stress period:     3    Time step:   361
 

 SLN_1 OUTER ITERATION SUMMARY
 ----------------------------------------------------------------------------------------------------------
                                OUTER      INNER                    STEP   MAXIMUM CHANGE MODEL-(CELLID) OR
 OUTER ITERATION STEP       ITERATION  ITERATION  MAXIMUM CHANGE SUCCESS             MODEL-PACKAGE-(NUMBER)
 ----------------------------------------------------------------------------------------------------------
 Model                              1          1  5.65705705E-10       *                     1_GWF-(1,27,1)
 ----------------------------------------------------------------------------------------------------------


 1 CALLS TO NUMERICAL SOLUTION IN TIME STEP 361 STRESS PERIOD 3
 1 TOTAL ITERATIONS

 SLN_2 OUTER ITERATION SUMMARY
 ----------------------------------------------------------------------------------------------------------
                                OUTER      INNER                    STEP   MAXIMUM CHANGE MODEL-(CELLID) OR
 OUTER ITERATION STEP       ITERATION  ITERATION  MAXIMUM CHANGE SUCCESS             MODEL-PACKAGE-(NUMBER)
 ----------------------------------------------------------------------------------------------------------
 Model                              1          2     -0.29301540                            2_GWT-(1,50,13)
 Model                              2          2 -3.01008007E-03                            2_GWT-(1,50,13)
 Model                              3          2  3.41491083E-05                            2_GWT-(1,49,10)
 Model                              4          2 -2.68757022E-06                            2_GWT-(1,49,10)
 Model                              5          1  1.32951858E-07       *                    2_GWT-(1,49,10)
 ----------------------------------------------------------------------------------------------------------


 5 CALLS TO NUMERICAL SOLUTION IN TIME STEP 361 STRESS PERIOD 3
 9 TOTAL ITERATIONS
 
    Solving:  Stress period:     3    Time step:   362
 

 SLN_1 OUTER ITERATION SUMMARY
 ----------------------------------------------------------------------------------------------------------
                                OUTER      INNER                    STEP   MAXIMUM CHANGE MODEL-(CELLID) OR
 OUTER ITERATION STEP       ITERATION  ITERATION  MAXIMUM CHANGE SUCCESS             MODEL-PACKAGE-(NUMBER)
 ----------------------------------------------------------------------------------------------------------
 Model                              1          1  5.61612978E-10       *                     1_GWF-(1,27,1)
 ----------------------------------------------------------------------------------------------------------


 1 CALLS TO NUMERICAL SOLUTION IN TIME STEP 362 STRESS PERIOD 3
 1 TOTAL ITERATIONS

 SLN_2 OUTER ITERATION SUMMARY
 ----------------------------------------------------------------------------------------------------------
                                OUTER      INNER                    STEP   MAXIMUM CHANGE MODEL-(CELLID) OR
 OUTER ITERATION STEP       ITERATION  ITERATION  MAXIMUM CHANGE SUCCESS             MODEL-PACKAGE-(NUMBER)
 ----------------------------------------------------------------------------------------------------------
 Model                              1          2     -0.28410786                            2_GWT-(1,50,13)
 Model                              2          2 -2.92012705E-03                            2_GWT-(1,50,13)
 Model                              3          2  3.18787114E-05                            2_GWT-(1,49,10)
 Model                              4          2 -2.55745413E-06                            2_GWT-(1,49,10)
 Model                              5          1  1.12683625E-07       *                    2_GWT-(1,49,10)
 ----------------------------------------------------------------------------------------------------------


 5 CALLS TO NUMERICAL SOLUTION IN TIME STEP 362 STRESS PERIOD 3
 9 TOTAL ITERATIONS
 
    Solving:  Stress period:     3    Time step:   363
 

 SLN_1 OUTER ITERATION SUMMARY
 ----------------------------------------------------------------------------------------------------------
                                OUTER      INNER                    STEP   MAXIMUM CHANGE MODEL-(CELLID) OR
 OUTER ITERATION STEP       ITERATION  ITERATION  MAXIMUM CHANGE SUCCESS             MODEL-PACKAGE-(NUMBER)
 ----------------------------------------------------------------------------------------------------------
 Model                              1          1  5.57520252E-10       *                     1_GWF-(1,27,1)
 ----------------------------------------------------------------------------------------------------------


 1 CALLS TO NUMERICAL SOLUTION IN TIME STEP 363 STRESS PERIOD 3
 1 TOTAL ITERATIONS

 SLN_2 OUTER ITERATION SUMMARY
 ----------------------------------------------------------------------------------------------------------
                                OUTER      INNER                    STEP   MAXIMUM CHANGE MODEL-(CELLID) OR
 OUTER ITERATION STEP       ITERATION  ITERATION  MAXIMUM CHANGE SUCCESS             MODEL-PACKAGE-(NUMBER)
 ----------------------------------------------------------------------------------------------------------
 Model                              1          2     -0.27541945                            2_GWT-(1,50,13)
 Model                              2          2 -2.83223610E-03                            2_GWT-(1,50,13)
 Model                              3          2  2.93758970E-05                            2_GWT-(1,49,10)
 Model                              4          2 -2.47039714E-06                            2_GWT-(1,49,10)
 Model                              5          1  9.46062469E-08       *                    2_GWT-(1,49,10)
 ----------------------------------------------------------------------------------------------------------


 5 CALLS TO NUMERICAL SOLUTION IN TIME STEP 363 STRESS PERIOD 3
 9 TOTAL ITERATIONS
 
    Solving:  Stress period:     3    Time step:   364
 

 SLN_1 OUTER ITERATION SUMMARY
 ----------------------------------------------------------------------------------------------------------
                                OUTER      INNER                    STEP   MAXIMUM CHANGE MODEL-(CELLID) OR
 OUTER ITERATION STEP       ITERATION  ITERATION  MAXIMUM CHANGE SUCCESS             MODEL-PACKAGE-(NUMBER)
 ----------------------------------------------------------------------------------------------------------
 Model                              1          1  5.52063284E-10       *                     1_GWF-(1,28,1)
 ----------------------------------------------------------------------------------------------------------


 1 CALLS TO NUMERICAL SOLUTION IN TIME STEP 364 STRESS PERIOD 3
 1 TOTAL ITERATIONS

 SLN_2 OUTER ITERATION SUMMARY
 ----------------------------------------------------------------------------------------------------------
                                OUTER      INNER                    STEP   MAXIMUM CHANGE MODEL-(CELLID) OR
 OUTER ITERATION STEP       ITERATION  ITERATION  MAXIMUM CHANGE SUCCESS             MODEL-PACKAGE-(NUMBER)
 ----------------------------------------------------------------------------------------------------------
 Model                              1          2     -0.26694738                            2_GWT-(1,50,13)
 Model                              2          2 -2.74639404E-03                            2_GWT-(1,50,13)
 Model                              3          2  2.64660547E-05                            2_GWT-(1,49,10)
 Model                              4          2 -2.44819580E-06                            2_GWT-(1,49,10)
 Model                              5          1  7.76823872E-08       *                    2_GWT-(1,49,10)
 ----------------------------------------------------------------------------------------------------------


 5 CALLS TO NUMERICAL SOLUTION IN TIME STEP 364 STRESS PERIOD 3
 9 TOTAL ITERATIONS

 MEMORY MANAGER TOTAL STORAGE BY DATA TYPE, IN MEGABYTES
 -------------------------------
                    ALLOCATED   
 DATA TYPE           MEMORY     
 -------------------------------
 Character        1.21040000E-02
 Logical          6.40000000E-05
 Integer          2.7953160     
 Real             5.7382960     
 -------------------------------
 Total            8.5457800     
 Virtual          0.0000000     
 -------------------------------


 
 Run end date and time (yyyy/mm/dd hh:mm:ss): 2025/11/21  0:18:28
 Elapsed run time: 49.536 Seconds
 Normal termination of simulation.
