                                   MODFLOW 6
                U.S. GEOLOGICAL SURVEY MODULAR HYDROLOGIC MODEL
                            VERSION 6.6.1 02/10/2025

   MODFLOW 6 compiled Feb 14 2025 13:39:18 with Intel(R) Fortran Intel(R) 64
   Compiler Classic for applications running on Intel(R) 64, Version 2021.7.0
                             Build 20220726_000000

This software has been approved for release by the U.S. Geological 
Survey (USGS). Although the software has been subjected to rigorous 
review, the USGS reserves the right to update the software as needed 
pursuant to further analysis and review. No warranty, expressed or 
implied, is made by the USGS or the U.S. Government as to the 
functionality of the software and related material nor shall the 
fact of release constitute any such warranty. Furthermore, the 
software is released on condition that neither the USGS nor the U.S. 
Government shall be held liable for any damages resulting from its 
authorized or unauthorized use. Also refer to the USGS Water 
Resources Software User Rights Notice for complete use, copyright, 
and distribution information.


As a work of the United States Government, this USGS product is 
in the public domain within the United States. You can copy, 
modify, distribute, and perform the work, even for commercial 
purposes, all without asking permission. Additionally, USGS 
waives copyright and related rights in the work worldwide 
through CC0 1.0 Universal Public Domain Dedication 
(https://creativecommons.org/publicdomain/zero/1.0/).

The following GNU Lesser General Public License (LGPL) libraries
are used in this USGS product:

    SPARSKIT version 2.0
      ilut, luson, and qsplit 
      (https://www-users.cse.umn.edu/~saad/software/SPARSKIT/)

    RCM - Reverse Cuthill McKee Ordering
      (https://people.math.sc.edu/Burkardt/f_src/rcm/rcm.html)

    BLAS - Basic Linear Algebra Subprograms Level 1
      (https://people.math.sc.edu/Burkardt/f_src/blas1_d/blas1_d.html)

    SPARSEKIT - Sparse Matrix Utility Package
      amux, dperm, dvperm, rperm, and cperm
      (https://people.sc.fsu.edu/~jburkardt/f77_src/sparsekit/sparsekit.html)

The following BSD-3 License libraries are used in this USGS product:

    Modern Fortran DAG Library
      Copyright (c) 2018, Jacob Williams
      All rights reserved.
      (https://github.com/jacobwilliams/daglib)

MODFLOW 6 compiler options: -Ilinux/obj_mf6 -O2 -no-heap-arrays -fpe0
-traceback -Qdiag-disable:7416 -Qdiag-disable:7025 -Qdiag-disable:5268 -fpp
-module linux/mod_mf6/ -c -o linux/obj_mf6/compilerversion.o

System command used to initiate simulation:
/home/sensei/mfplayground/modflow-python/mf6.4.1_linux/bin/mf6

MODFLOW was compiled using uniform precision.

Real Variables
  KIND: 8
  TINY (smallest non-zero value):    2.225074-308
  HUGE (largest value):    1.797693+308
  PRECISION: 15
  SIZE IN BITS: 64

Integer Variables
  KIND: 4
  HUGE (largest value): 2147483647
  SIZE IN BITS: 32

Long Integer Variables
  KIND: 8
  HUGE (largest value): 9223372036854775807
  SIZE IN BITS: 64

Logical Variables
  KIND: 4
  SIZE IN BITS: 32
 

 OPENED mfsim.nam
 FILE TYPE:NAM6               UNIT 1001   STATUS:OLD                 
 FORMAT:FORMATTED              ACCESS:SEQUENTIAL          
 ACTION:READ                

 # File generated by Flopy version 3.9.2 on 11/11/2025 at 21:33:36.

 OPENED sim-es7.tdis
 FILE TYPE:TDIS6              UNIT 1002   STATUS:OLD                 
 FORMAT:FORMATTED              ACCESS:SEQUENTIAL          
 ACTION:READ                

 # File generated by Flopy version 3.9.2 on 11/11/2025 at 21:33:36.

 OPENED gwf-es7.nam
 FILE TYPE:GWF6               UNIT 1003   STATUS:OLD                 
 FORMAT:FORMATTED              ACCESS:SEQUENTIAL          
 ACTION:READ                

 # File generated by Flopy version 3.9.2 on 11/11/2025 at 21:33:36.

 OPENED gwf-es7.dis
 FILE TYPE:DIS6               UNIT 1004   STATUS:OLD                 
 FORMAT:FORMATTED              ACCESS:SEQUENTIAL          
 ACTION:READ                

 # File generated by Flopy version 3.9.2 on 11/11/2025 at 21:33:36.

 OPENED gwf-es7.npf
 FILE TYPE:NPF6               UNIT 1005   STATUS:OLD                 
 FORMAT:FORMATTED              ACCESS:SEQUENTIAL          
 ACTION:READ                

 # File generated by Flopy version 3.9.2 on 11/11/2025 at 21:33:36.

 OPENED gwf-es7.sto
 FILE TYPE:STO6               UNIT 1006   STATUS:OLD                 
 FORMAT:FORMATTED              ACCESS:SEQUENTIAL          
 ACTION:READ                

 # File generated by Flopy version 3.9.2 on 11/11/2025 at 21:33:36.

 OPENED gwf-es7.ic
 FILE TYPE:IC6                UNIT 1007   STATUS:OLD                 
 FORMAT:FORMATTED              ACCESS:SEQUENTIAL          
 ACTION:READ                

 # File generated by Flopy version 3.9.2 on 11/11/2025 at 21:33:36.

 OPENED gwf-es7.oc
 FILE TYPE:OC6       UNIT 1008   STATUS:OLD                 
 FORMAT:FORMATTED              ACCESS:SEQUENTIAL          
 ACTION:READ                


 OPENED gwf-es7.chd
 FILE TYPE:CHD6               UNIT 1009   STATUS:OLD                 
 FORMAT:FORMATTED              ACCESS:SEQUENTIAL          
 ACTION:READ                

 # File generated by Flopy version 3.9.2 on 11/11/2025 at 21:33:36.
    AUXILIARY  VARIABLE: CONCENTRATION   

 OPENED gwf-es7.nam
 FILE TYPE:GWF6               UNIT 1010   STATUS:OLD                 
 FORMAT:FORMATTED              ACCESS:SEQUENTIAL          
 ACTION:READ                

 # File generated by Flopy version 3.9.2 on 11/11/2025 at 21:33:36.

 OPENED gwf-es7.dis
 FILE TYPE:DIS6               UNIT 1011   STATUS:OLD                 
 FORMAT:FORMATTED              ACCESS:SEQUENTIAL          
 ACTION:READ                

 # File generated by Flopy version 3.9.2 on 11/11/2025 at 21:33:36.

 OPENED gwf-es7.dis
 FILE TYPE:DIS6               UNIT 1012   STATUS:OLD                 
 FORMAT:FORMATTED              ACCESS:SEQUENTIAL          
 ACTION:READ                

 # File generated by Flopy version 3.9.2 on 11/11/2025 at 21:33:36.

 OPENED gwf-es7.npf
 FILE TYPE:NPF6               UNIT 1013   STATUS:OLD                 
 FORMAT:FORMATTED              ACCESS:SEQUENTIAL          
 ACTION:READ                

 # File generated by Flopy version 3.9.2 on 11/11/2025 at 21:33:36.

 OPENED gwf-es7.npf
 FILE TYPE:NPF6               UNIT 1014   STATUS:OLD                 
 FORMAT:FORMATTED              ACCESS:SEQUENTIAL          
 ACTION:READ                

 # File generated by Flopy version 3.9.2 on 11/11/2025 at 21:33:36.

WARNING REPORT:

   1. Already existing variable being added to the HashTable
      -__INPUT__/GWF-ES7/NAM/SAVE_FLOWS
   2. Already existing variable being added to the HashTable
      -__INPUT__/GWF-ES7/PKGTYPES
   3. Already existing variable being added to the HashTable
      -__INPUT__/GWF-ES7/PKGNAMES
   4. Already existing variable being added to the HashTable
      -__INPUT__/GWF-ES7/MEMPATHS
   5. Already existing variable being added to the HashTable
      -__INPUT__/GWF-ES7/INUNITS
   6. Already existing variable being added to the HashTable
      -__INPUT__/GWF-ES7/STO/INPUT_FNAME
   7. Already existing variable being added to the HashTable
      -__INPUT__/GWF-ES7/NPF/INPUT_FNAME
   8. Already existing variable being added to the HashTable
      -__INPUT__/GWF-ES7/IC/INPUT_FNAME
   9. Already existing variable being added to the HashTable
      -__INPUT__/GWF-ES7/DIS/INPUT_FNAME
  10. Already existing variable being added to the HashTable
      -__INPUT__/GWF-ES7/CHD-1/INPUT_FNAME
  11. Already existing variable being added to the HashTable
      -__INPUT__/GWF-ES7/STO/INPUT_FNAME
  12. Already existing variable being added to the HashTable
      -__INPUT__/GWF-ES7/NPF/INPUT_FNAME
  13. Already existing variable being added to the HashTable
      -__INPUT__/GWF-ES7/IC/INPUT_FNAME
  14. Already existing variable being added to the HashTable
      -__INPUT__/GWF-ES7/DIS/INPUT_FNAME
  15. Already existing variable being added to the HashTable
      -__INPUT__/GWF-ES7/CHD-1/INPUT_FNAME
  16. Already existing variable being added to the HashTable
      -__INPUT__/GWF-ES7/NETCDF_GRID
  17. Already existing variable being added to the HashTable
      -__INPUT__/GWF-ES7/NETCDF_FNAME
  18. Already existing variable being added to the HashTable
      -__INPUT__/GWF-ES7/NCID
  19. Already existing variable being added to the HashTable
      -__INPUT__/GWF-ES7/DIS/LENGTH_UNITS
  20. Already existing variable being added to the HashTable
      -__INPUT__/GWF-ES7/DIS/NLAY
  21. Already existing variable being added to the HashTable
      -__INPUT__/GWF-ES7/DIS/NROW
  22. Already existing variable being added to the HashTable
      -__INPUT__/GWF-ES7/DIS/NCOL
  23. Already existing variable being added to the HashTable
      -__INPUT__/GWF-ES7/MODEL_SHAPE
  24. Already existing variable being added to the HashTable
      -__INPUT__/GWF-ES7/NCELLDIM
  25. Already existing variable being added to the HashTable
      -__INPUT__/GWF-ES7/DISENUM
  26. Already existing variable being added to the HashTable
      -__INPUT__/GWF-ES7/DIS/DELR
  27. Already existing variable being added to the HashTable
      -__INPUT__/GWF-ES7/DIS/DELC
  28. Already existing variable being added to the HashTable
      -__INPUT__/GWF-ES7/DIS/TOP
  29. Already existing variable being added to the HashTable
      -__INPUT__/GWF-ES7/DIS/BOTM
  30. Already existing variable being added to the HashTable
      -__INPUT__/GWF-ES7/DIS/IDOMAIN
  31. Already existing variable being added to the HashTable
      -__INPUT__/GWF-ES7/DIS/LENGTH_UNITS
  32. Already existing variable being added to the HashTable
      -__INPUT__/GWF-ES7/DIS/NLAY
  33. Already existing variable being added to the HashTable
      -__INPUT__/GWF-ES7/DIS/NROW
  34. Already existing variable being added to the HashTable
      -__INPUT__/GWF-ES7/DIS/NCOL
  35. Already existing variable being added to the HashTable
      -__INPUT__/GWF-ES7/MODEL_SHAPE
  36. Already existing variable being added to the HashTable
      -__INPUT__/GWF-ES7/NCELLDIM
  37. Already existing variable being added to the HashTable
      -__INPUT__/GWF-ES7/DISENUM
  38. Already existing variable being added to the HashTable
      -__INPUT__/GWF-ES7/DIS/DELR
  39. Already existing variable being added to the HashTable
      -__INPUT__/GWF-ES7/DIS/DELC
  40. Already existing variable being added to the HashTable
      -__INPUT__/GWF-ES7/DIS/TOP
  41. Already existing variable being added to the HashTable
      -__INPUT__/GWF-ES7/DIS/BOTM
  42. Already existing variable being added to the HashTable
      -__INPUT__/GWF-ES7/DIS/IDOMAIN
  43. Already existing variable being added to the HashTable
      -__INPUT__/GWF-ES7/NPF/ISAVSPDIS
  44. Already existing variable being added to the HashTable
      -__INPUT__/GWF-ES7/NPF/ICELLTYPE
  45. Already existing variable being added to the HashTable
      -__INPUT__/GWF-ES7/NPF/K
  46. Already existing variable being added to the HashTable
      -__INPUT__/GWF-ES7/NPF/K33
  47. Already existing variable being added to the HashTable
      -__INPUT__/GWF-ES7/NPF/ISAVSPDIS
  48. Already existing variable being added to the HashTable
      -__INPUT__/GWF-ES7/NPF/ICELLTYPE
  49. Already existing variable being added to the HashTable
      -__INPUT__/GWF-ES7/NPF/K
  50. Already existing variable being added to the HashTable
      -__INPUT__/GWF-ES7/NPF/K33
  51. Already existing variable being added to the HashTable
      -__INPUT__/GWF-ES7/STO/IPER
  52. Already existing variable being added to the HashTable
      -__INPUT__/GWF-ES7/STO/IONPER

ERROR REPORT:

  1. Could not open "gwf-es7.sto" on unit 1015. File already open on unit
     1006. Specified file status OLD. Specified file format FORMATTED.
     Specified file access SEQUENTIAL. Specified file action READ. IOSTAT
     error number -1. STOP EXECUTION in subroutine openfile().
