                                   MODFLOW 6
                U.S. GEOLOGICAL SURVEY MODULAR HYDROLOGIC MODEL
                             TRANSPORT MODEL (GWT)
                            VERSION 6.6.1 02/10/2025

   MODFLOW 6 compiled Feb 14 2025 13:39:18 with Intel(R) Fortran Intel(R) 64
   Compiler Classic for applications running on Intel(R) 64, Version 2021.7.0
                             Build 20220726_000000

This software has been approved for release by the U.S. Geological 
Survey (USGS). Although the software has been subjected to rigorous 
review, the USGS reserves the right to update the software as needed 
pursuant to further analysis and review. No warranty, expressed or 
implied, is made by the USGS or the U.S. Government as to the 
functionality of the software and related material nor shall the 
fact of release constitute any such warranty. Furthermore, the 
software is released on condition that neither the USGS nor the U.S. 
Government shall be held liable for any damages resulting from its 
authorized or unauthorized use. Also refer to the USGS Water 
Resources Software User Rights Notice for complete use, copyright, 
and distribution information.


As a work of the United States Government, this USGS product is 
in the public domain within the United States. You can copy, 
modify, distribute, and perform the work, even for commercial 
purposes, all without asking permission. Additionally, USGS 
waives copyright and related rights in the work worldwide 
through CC0 1.0 Universal Public Domain Dedication 
(https://creativecommons.org/publicdomain/zero/1.0/).

The following GNU Lesser General Public License (LGPL) libraries
are used in this USGS product:

    SPARSKIT version 2.0
      ilut, luson, and qsplit 
      (https://www-users.cse.umn.edu/~saad/software/SPARSKIT/)

    RCM - Reverse Cuthill McKee Ordering
      (https://people.math.sc.edu/Burkardt/f_src/rcm/rcm.html)

    BLAS - Basic Linear Algebra Subprograms Level 1
      (https://people.math.sc.edu/Burkardt/f_src/blas1_d/blas1_d.html)

    SPARSEKIT - Sparse Matrix Utility Package
      amux, dperm, dvperm, rperm, and cperm
      (https://people.sc.fsu.edu/~jburkardt/f77_src/sparsekit/sparsekit.html)

The following BSD-3 License libraries are used in this USGS product:

    Modern Fortran DAG Library
      Copyright (c) 2018, Jacob Williams
      All rights reserved.
      (https://github.com/jacobwilliams/daglib)

MODFLOW 6 compiler options: -Ilinux/obj_mf6 -O2 -no-heap-arrays -fpe0
-traceback -Qdiag-disable:7416 -Qdiag-disable:7025 -Qdiag-disable:5268 -fpp
-module linux/mod_mf6/ -c -o linux/obj_mf6/compilerversion.o

System command used to initiate simulation:
/home/sensei/mfplayground/modflow-python/mf6.4.1_linux/bin/mf6

MODFLOW was compiled using uniform precision.

Real Variables
  KIND: 8
  TINY (smallest non-zero value):    2.225074-308
  HUGE (largest value):    1.797693+308
  PRECISION: 15
  SIZE IN BITS: 64

Integer Variables
  KIND: 4
  HUGE (largest value): 2147483647
  SIZE IN BITS: 32

Long Integer Variables
  KIND: 8
  HUGE (largest value): 9223372036854775807
  SIZE IN BITS: 64

Logical Variables
  KIND: 4
  SIZE IN BITS: 32
 
 NAMEFILE OPTIONS:
    FLOWS WILL BE SAVED TO BUDGET FILE SPECIFIED IN OUTPUT CONTROL
 END NAMEFILE OPTIONS:

 DIS -- STRUCTURED GRID DISCRETIZATION PACKAGE, VERSION 2 : 3/27/2014 - INPUT READ FROM MEMPATH: __INPUT__/GWT-MF6-PR2/DIS                         


 DSP-- DISPERSION PACKAGE, VERSION 1, 1/24/2018 INPUT READ FROM MEMPATH: __INPUT__/GWT-MF6-PR2/DSP                         


 Setting Discretization Options
 End Setting Discretization Options

 Setting Discretization Dimensions
    NLAY = 1
    NROW = 14
    NCOL = 10
 End Setting Discretization Dimensions

 Setting Discretization Griddata
    DELR set from input file
    DELC set from input file
    TOP set from input file
    BOTM set from input file
    IDOMAIN set from input file
 End Setting Discretization Griddata


 The specified IDOMAIN results in a reduced number of cells.
 Number of user nodes: 140
 Number of nodes in solution: 96



 FMI -- FLOW MODEL INTERFACE,' VERSION 2, 8/17/2023
  FLOWS PROVIDED BY A GWF MODEL IN THIS SIMULATION

 ADV-- ADVECTION PACKAGE, VERSION 1, 8/25/2017 INPUT READ FROM UNIT 1015


 # File generated by Flopy version 3.9.2 on 02/17/2025 at 16:45:38.
 PROCESSING ADVECTION OPTIONS
    ADVECTION WEIGHTING SCHEME HAS BEEN SET TO: TVD
 END OF ADVECTION OPTIONS
 Setting DSP Options
    XT3D formulation [0=INACTIVE, 1=ACTIVE, 3=ACTIVE RHS] set to: 1
 End Setting DSP Options

 Setting DSP Griddata
    ALH set from input file
    ATH1 set from input file
 End Setting DSP Griddata

    STRT set from input file

 MST -- MOBILE STORAGE AND TRANSFER PACKAGE, VERSION 1, 7/29/2020 INPUT READ FROM UNIT 1014


 # File generated by Flopy version 3.9.2 on 02/17/2025 at 16:45:38.
 PROCESSING MOBILE STORAGE AND TRANSFER OPTIONS
 END OF MOBILE STORAGE AND TRANSFER OPTIONS
 PROCESSING GRIDDATA
 END PROCESSING GRIDDATA

 SSM -- SOURCE-SINK MIXING PACKAGE, VERSION 1, 8/25/2017 INPUT READ FROM UNIT 1017


 # File generated by Flopy version 3.9.2 on 02/17/2025 at 16:45:38.
 PROCESSING SSM OPTIONS
    SSM FLOW INFORMATION WILL BE PRINTED TO LISTING FILE WHENEVER ICBCFL IS NOT ZERO.
 END OF SSM OPTIONS
 PROCESSING SOURCES
 AUX SOURCE DETECTED.
    USING AUX COLUMN 1 IN PACKAGE WEL-1
 AUX SOURCE DETECTED.
    USING AUX COLUMN 1 IN PACKAGE CHD-1
 END PROCESSING SOURCES
 OPTIONAL FILEINPUT BLOCK NOT FOUND.  CONTINUING.
      THE LAST TIME STEP WILL BE PRINTED
      THE LAST TIME STEP WILL BE PRINTED
 # File generated by Flopy version 3.9.2 on 02/17/2025 at 16:45:38.

 PROCESSING OC OPTIONS

    BUDGET INFORMATION WILL BE WRITTEN TO:
      UNIT NUMBER: 1027
      FILE NAME: gwt-mf6-pr2.cbc

 OPENED gwt-mf6-pr2.cbc
 FILE TYPE:DATA(BINARY)   UNIT 1027   STATUS:REPLACE             
 FORMAT:UNFORMATTED            ACCESS:STREAM              
 ACTION:READWRITE           

    CONCENTRATION INFORMATION WILL BE WRITTEN TO:
      UNIT NUMBER: 1028
      FILE NAME: gwt-mf6-pr2.ucn

 OPENED gwt-mf6-pr2.ucn
 FILE TYPE:DATA(BINARY)   UNIT 1028   STATUS:REPLACE             
 FORMAT:UNFORMATTED            ACCESS:STREAM              
 ACTION:READWRITE           

 END OF OC OPTIONS

start timestep kper="1" kstp="1" mode="normal"


 BEGIN READING OUTPUT CONTROL FOR STRESS PERIOD 1
      THE LAST TIME STEP WILL BE SAVED
      THE LAST TIME STEP WILL BE SAVED
      THE LAST TIME STEP WILL BE PRINTED
      THE LAST TIME STEP WILL BE PRINTED

 END READING OUTPUT CONTROL FOR STRESS PERIOD 1

 XT3D is active.



end timestep


start timestep kper="1" kstp="2" mode="normal"


end timestep


start timestep kper="1" kstp="3" mode="normal"


end timestep


start timestep kper="1" kstp="4" mode="normal"


end timestep


start timestep kper="1" kstp="5" mode="normal"


end timestep


start timestep kper="1" kstp="6" mode="normal"


end timestep


start timestep kper="1" kstp="7" mode="normal"


end timestep


start timestep kper="1" kstp="8" mode="normal"


end timestep


start timestep kper="1" kstp="9" mode="normal"


end timestep


start timestep kper="1" kstp="10" mode="normal"


end timestep


start timestep kper="1" kstp="11" mode="normal"


end timestep


start timestep kper="1" kstp="12" mode="normal"


end timestep


start timestep kper="1" kstp="13" mode="normal"


end timestep


start timestep kper="1" kstp="14" mode="normal"


end timestep


start timestep kper="1" kstp="15" mode="normal"


end timestep


start timestep kper="1" kstp="16" mode="normal"


end timestep


start timestep kper="1" kstp="17" mode="normal"


end timestep


start timestep kper="1" kstp="18" mode="normal"


end timestep


start timestep kper="1" kstp="19" mode="normal"


end timestep


start timestep kper="1" kstp="20" mode="normal"


end timestep


start timestep kper="1" kstp="21" mode="normal"


end timestep


start timestep kper="1" kstp="22" mode="normal"


end timestep


start timestep kper="1" kstp="23" mode="normal"


end timestep


start timestep kper="1" kstp="24" mode="normal"


end timestep


start timestep kper="1" kstp="25" mode="normal"


end timestep


start timestep kper="1" kstp="26" mode="normal"


end timestep


start timestep kper="1" kstp="27" mode="normal"


end timestep


start timestep kper="1" kstp="28" mode="normal"


end timestep


start timestep kper="1" kstp="29" mode="normal"


end timestep


start timestep kper="1" kstp="30" mode="normal"


end timestep


start timestep kper="1" kstp="31" mode="normal"


end timestep


start timestep kper="1" kstp="32" mode="normal"


end timestep


start timestep kper="1" kstp="33" mode="normal"


end timestep


start timestep kper="1" kstp="34" mode="normal"


end timestep


start timestep kper="1" kstp="35" mode="normal"


end timestep


start timestep kper="1" kstp="36" mode="normal"


end timestep


start timestep kper="1" kstp="37" mode="normal"


end timestep


start timestep kper="1" kstp="38" mode="normal"


end timestep


start timestep kper="1" kstp="39" mode="normal"


end timestep


start timestep kper="1" kstp="40" mode="normal"


end timestep


start timestep kper="1" kstp="41" mode="normal"


end timestep


start timestep kper="1" kstp="42" mode="normal"


end timestep


start timestep kper="1" kstp="43" mode="normal"


end timestep


start timestep kper="1" kstp="44" mode="normal"


end timestep


start timestep kper="1" kstp="45" mode="normal"


end timestep


start timestep kper="1" kstp="46" mode="normal"


end timestep


start timestep kper="1" kstp="47" mode="normal"


end timestep


start timestep kper="1" kstp="48" mode="normal"


end timestep


start timestep kper="1" kstp="49" mode="normal"


end timestep


start timestep kper="1" kstp="50" mode="normal"


end timestep


start timestep kper="1" kstp="51" mode="normal"


end timestep


start timestep kper="1" kstp="52" mode="normal"


end timestep


start timestep kper="1" kstp="53" mode="normal"


end timestep


start timestep kper="1" kstp="54" mode="normal"


end timestep


start timestep kper="1" kstp="55" mode="normal"


end timestep


start timestep kper="1" kstp="56" mode="normal"


end timestep


start timestep kper="1" kstp="57" mode="normal"


end timestep


start timestep kper="1" kstp="58" mode="normal"


end timestep


start timestep kper="1" kstp="59" mode="normal"


end timestep


start timestep kper="1" kstp="60" mode="normal"


end timestep


start timestep kper="1" kstp="61" mode="normal"


end timestep


start timestep kper="1" kstp="62" mode="normal"


end timestep


start timestep kper="1" kstp="63" mode="normal"


end timestep


start timestep kper="1" kstp="64" mode="normal"


end timestep


start timestep kper="1" kstp="65" mode="normal"


end timestep


start timestep kper="1" kstp="66" mode="normal"


end timestep


start timestep kper="1" kstp="67" mode="normal"


end timestep


start timestep kper="1" kstp="68" mode="normal"


end timestep


start timestep kper="1" kstp="69" mode="normal"


end timestep


start timestep kper="1" kstp="70" mode="normal"


end timestep


start timestep kper="1" kstp="71" mode="normal"


end timestep


start timestep kper="1" kstp="72" mode="normal"


end timestep


start timestep kper="1" kstp="73" mode="normal"


end timestep


start timestep kper="1" kstp="74" mode="normal"


end timestep


start timestep kper="1" kstp="75" mode="normal"


end timestep


start timestep kper="1" kstp="76" mode="normal"


end timestep


start timestep kper="1" kstp="77" mode="normal"


end timestep


start timestep kper="1" kstp="78" mode="normal"


end timestep


start timestep kper="1" kstp="79" mode="normal"


end timestep


start timestep kper="1" kstp="80" mode="normal"


end timestep


start timestep kper="1" kstp="81" mode="normal"


end timestep


start timestep kper="1" kstp="82" mode="normal"


end timestep


start timestep kper="1" kstp="83" mode="normal"


end timestep


start timestep kper="1" kstp="84" mode="normal"


end timestep


start timestep kper="1" kstp="85" mode="normal"


end timestep


start timestep kper="1" kstp="86" mode="normal"


end timestep


start timestep kper="1" kstp="87" mode="normal"


end timestep


start timestep kper="1" kstp="88" mode="normal"


end timestep


start timestep kper="1" kstp="89" mode="normal"


end timestep


start timestep kper="1" kstp="90" mode="normal"


end timestep


start timestep kper="1" kstp="91" mode="normal"


end timestep


start timestep kper="1" kstp="92" mode="normal"


end timestep


start timestep kper="1" kstp="93" mode="normal"


end timestep


start timestep kper="1" kstp="94" mode="normal"


end timestep


start timestep kper="1" kstp="95" mode="normal"


end timestep


start timestep kper="1" kstp="96" mode="normal"


end timestep


start timestep kper="1" kstp="97" mode="normal"


end timestep


start timestep kper="1" kstp="98" mode="normal"


end timestep


start timestep kper="1" kstp="99" mode="normal"


end timestep


start timestep kper="1" kstp="100" mode="normal"


end timestep


start timestep kper="1" kstp="101" mode="normal"


end timestep


start timestep kper="1" kstp="102" mode="normal"


end timestep


start timestep kper="1" kstp="103" mode="normal"


end timestep


start timestep kper="1" kstp="104" mode="normal"


end timestep


start timestep kper="1" kstp="105" mode="normal"


end timestep


start timestep kper="1" kstp="106" mode="normal"


end timestep


start timestep kper="1" kstp="107" mode="normal"


end timestep


start timestep kper="1" kstp="108" mode="normal"


end timestep


start timestep kper="1" kstp="109" mode="normal"


end timestep


start timestep kper="1" kstp="110" mode="normal"


end timestep


start timestep kper="1" kstp="111" mode="normal"


end timestep


start timestep kper="1" kstp="112" mode="normal"


end timestep


start timestep kper="1" kstp="113" mode="normal"


end timestep


start timestep kper="1" kstp="114" mode="normal"


end timestep


start timestep kper="1" kstp="115" mode="normal"


end timestep


start timestep kper="1" kstp="116" mode="normal"


end timestep


start timestep kper="1" kstp="117" mode="normal"


end timestep


start timestep kper="1" kstp="118" mode="normal"


end timestep


start timestep kper="1" kstp="119" mode="normal"


end timestep


start timestep kper="1" kstp="120" mode="normal"


end timestep


start timestep kper="1" kstp="121" mode="normal"


end timestep


start timestep kper="1" kstp="122" mode="normal"


end timestep


start timestep kper="1" kstp="123" mode="normal"


end timestep


start timestep kper="1" kstp="124" mode="normal"


end timestep


start timestep kper="1" kstp="125" mode="normal"


end timestep


start timestep kper="1" kstp="126" mode="normal"


end timestep


start timestep kper="1" kstp="127" mode="normal"


end timestep


start timestep kper="1" kstp="128" mode="normal"


end timestep


start timestep kper="1" kstp="129" mode="normal"


end timestep


start timestep kper="1" kstp="130" mode="normal"


end timestep


start timestep kper="1" kstp="131" mode="normal"


end timestep


start timestep kper="1" kstp="132" mode="normal"


end timestep


start timestep kper="1" kstp="133" mode="normal"


end timestep


start timestep kper="1" kstp="134" mode="normal"


end timestep


start timestep kper="1" kstp="135" mode="normal"


end timestep


start timestep kper="1" kstp="136" mode="normal"


end timestep


start timestep kper="1" kstp="137" mode="normal"


end timestep


start timestep kper="1" kstp="138" mode="normal"


end timestep


start timestep kper="1" kstp="139" mode="normal"


end timestep


start timestep kper="1" kstp="140" mode="normal"


end timestep


start timestep kper="1" kstp="141" mode="normal"


end timestep


start timestep kper="1" kstp="142" mode="normal"


end timestep


start timestep kper="1" kstp="143" mode="normal"


end timestep


start timestep kper="1" kstp="144" mode="normal"


end timestep


start timestep kper="1" kstp="145" mode="normal"


end timestep


start timestep kper="1" kstp="146" mode="normal"


end timestep


start timestep kper="1" kstp="147" mode="normal"


end timestep


start timestep kper="1" kstp="148" mode="normal"


end timestep


start timestep kper="1" kstp="149" mode="normal"


end timestep


start timestep kper="1" kstp="150" mode="normal"


end timestep


start timestep kper="1" kstp="151" mode="normal"


end timestep


start timestep kper="1" kstp="152" mode="normal"


end timestep


start timestep kper="1" kstp="153" mode="normal"


end timestep


start timestep kper="1" kstp="154" mode="normal"


end timestep


start timestep kper="1" kstp="155" mode="normal"


end timestep


start timestep kper="1" kstp="156" mode="normal"


end timestep


start timestep kper="1" kstp="157" mode="normal"


end timestep


start timestep kper="1" kstp="158" mode="normal"


end timestep


start timestep kper="1" kstp="159" mode="normal"


end timestep


start timestep kper="1" kstp="160" mode="normal"


end timestep


start timestep kper="1" kstp="161" mode="normal"


end timestep


start timestep kper="1" kstp="162" mode="normal"


end timestep


start timestep kper="1" kstp="163" mode="normal"


end timestep


start timestep kper="1" kstp="164" mode="normal"


end timestep


start timestep kper="1" kstp="165" mode="normal"


end timestep


start timestep kper="1" kstp="166" mode="normal"


end timestep


start timestep kper="1" kstp="167" mode="normal"


end timestep


start timestep kper="1" kstp="168" mode="normal"


end timestep


start timestep kper="1" kstp="169" mode="normal"


end timestep


start timestep kper="1" kstp="170" mode="normal"


end timestep


start timestep kper="1" kstp="171" mode="normal"


end timestep


start timestep kper="1" kstp="172" mode="normal"


end timestep


start timestep kper="1" kstp="173" mode="normal"


end timestep


start timestep kper="1" kstp="174" mode="normal"


end timestep


start timestep kper="1" kstp="175" mode="normal"


end timestep


start timestep kper="1" kstp="176" mode="normal"


end timestep


start timestep kper="1" kstp="177" mode="normal"


end timestep


start timestep kper="1" kstp="178" mode="normal"


end timestep


start timestep kper="1" kstp="179" mode="normal"


end timestep


start timestep kper="1" kstp="180" mode="normal"


end timestep


start timestep kper="1" kstp="181" mode="normal"


end timestep


start timestep kper="1" kstp="182" mode="normal"


end timestep


start timestep kper="1" kstp="183" mode="normal"


end timestep


start timestep kper="1" kstp="184" mode="normal"


end timestep


start timestep kper="1" kstp="185" mode="normal"


end timestep


start timestep kper="1" kstp="186" mode="normal"


end timestep


start timestep kper="1" kstp="187" mode="normal"


end timestep


start timestep kper="1" kstp="188" mode="normal"


end timestep


start timestep kper="1" kstp="189" mode="normal"


end timestep


start timestep kper="1" kstp="190" mode="normal"


end timestep


start timestep kper="1" kstp="191" mode="normal"


end timestep


start timestep kper="1" kstp="192" mode="normal"


end timestep


start timestep kper="1" kstp="193" mode="normal"


end timestep


start timestep kper="1" kstp="194" mode="normal"


end timestep


start timestep kper="1" kstp="195" mode="normal"


end timestep


start timestep kper="1" kstp="196" mode="normal"


end timestep


start timestep kper="1" kstp="197" mode="normal"


end timestep


start timestep kper="1" kstp="198" mode="normal"


end timestep


start timestep kper="1" kstp="199" mode="normal"


end timestep


start timestep kper="1" kstp="200" mode="normal"


end timestep


start timestep kper="1" kstp="201" mode="normal"


end timestep


start timestep kper="1" kstp="202" mode="normal"


end timestep


start timestep kper="1" kstp="203" mode="normal"


end timestep


start timestep kper="1" kstp="204" mode="normal"


end timestep


start timestep kper="1" kstp="205" mode="normal"


end timestep


start timestep kper="1" kstp="206" mode="normal"


end timestep


start timestep kper="1" kstp="207" mode="normal"


end timestep


start timestep kper="1" kstp="208" mode="normal"


end timestep


start timestep kper="1" kstp="209" mode="normal"


end timestep


start timestep kper="1" kstp="210" mode="normal"


end timestep


start timestep kper="1" kstp="211" mode="normal"


end timestep


start timestep kper="1" kstp="212" mode="normal"


end timestep


start timestep kper="1" kstp="213" mode="normal"


end timestep


start timestep kper="1" kstp="214" mode="normal"


end timestep


start timestep kper="1" kstp="215" mode="normal"


end timestep


start timestep kper="1" kstp="216" mode="normal"


end timestep


start timestep kper="1" kstp="217" mode="normal"


end timestep


start timestep kper="1" kstp="218" mode="normal"


end timestep


start timestep kper="1" kstp="219" mode="normal"


end timestep


start timestep kper="1" kstp="220" mode="normal"


end timestep


start timestep kper="1" kstp="221" mode="normal"


end timestep


start timestep kper="1" kstp="222" mode="normal"


end timestep


start timestep kper="1" kstp="223" mode="normal"


end timestep


start timestep kper="1" kstp="224" mode="normal"


end timestep


start timestep kper="1" kstp="225" mode="normal"


end timestep


start timestep kper="1" kstp="226" mode="normal"


end timestep


start timestep kper="1" kstp="227" mode="normal"


end timestep


start timestep kper="1" kstp="228" mode="normal"


end timestep


start timestep kper="1" kstp="229" mode="normal"


end timestep


start timestep kper="1" kstp="230" mode="normal"


end timestep


start timestep kper="1" kstp="231" mode="normal"


end timestep


start timestep kper="1" kstp="232" mode="normal"


end timestep


start timestep kper="1" kstp="233" mode="normal"


end timestep


start timestep kper="1" kstp="234" mode="normal"


end timestep


start timestep kper="1" kstp="235" mode="normal"


end timestep


start timestep kper="1" kstp="236" mode="normal"


end timestep


start timestep kper="1" kstp="237" mode="normal"


end timestep


start timestep kper="1" kstp="238" mode="normal"


end timestep


start timestep kper="1" kstp="239" mode="normal"


end timestep


start timestep kper="1" kstp="240" mode="normal"


end timestep


start timestep kper="1" kstp="241" mode="normal"


end timestep


start timestep kper="1" kstp="242" mode="normal"


end timestep


start timestep kper="1" kstp="243" mode="normal"


end timestep


start timestep kper="1" kstp="244" mode="normal"


end timestep


start timestep kper="1" kstp="245" mode="normal"


end timestep


start timestep kper="1" kstp="246" mode="normal"


end timestep


start timestep kper="1" kstp="247" mode="normal"


end timestep


start timestep kper="1" kstp="248" mode="normal"


end timestep


start timestep kper="1" kstp="249" mode="normal"


end timestep


start timestep kper="1" kstp="250" mode="normal"


end timestep


start timestep kper="1" kstp="251" mode="normal"


end timestep


start timestep kper="1" kstp="252" mode="normal"


end timestep


start timestep kper="1" kstp="253" mode="normal"


end timestep


start timestep kper="1" kstp="254" mode="normal"


end timestep


start timestep kper="1" kstp="255" mode="normal"


end timestep


start timestep kper="1" kstp="256" mode="normal"


end timestep


start timestep kper="1" kstp="257" mode="normal"


end timestep


start timestep kper="1" kstp="258" mode="normal"


end timestep


start timestep kper="1" kstp="259" mode="normal"


end timestep


start timestep kper="1" kstp="260" mode="normal"


end timestep


start timestep kper="1" kstp="261" mode="normal"


end timestep


start timestep kper="1" kstp="262" mode="normal"


end timestep


start timestep kper="1" kstp="263" mode="normal"


end timestep


start timestep kper="1" kstp="264" mode="normal"


end timestep


start timestep kper="1" kstp="265" mode="normal"


end timestep


start timestep kper="1" kstp="266" mode="normal"


end timestep


start timestep kper="1" kstp="267" mode="normal"


end timestep


start timestep kper="1" kstp="268" mode="normal"


end timestep


start timestep kper="1" kstp="269" mode="normal"


end timestep


start timestep kper="1" kstp="270" mode="normal"


end timestep


start timestep kper="1" kstp="271" mode="normal"


end timestep


start timestep kper="1" kstp="272" mode="normal"


end timestep


start timestep kper="1" kstp="273" mode="normal"


end timestep


start timestep kper="1" kstp="274" mode="normal"


end timestep


start timestep kper="1" kstp="275" mode="normal"


end timestep


start timestep kper="1" kstp="276" mode="normal"


end timestep


start timestep kper="1" kstp="277" mode="normal"


end timestep


start timestep kper="1" kstp="278" mode="normal"


end timestep


start timestep kper="1" kstp="279" mode="normal"


end timestep


start timestep kper="1" kstp="280" mode="normal"


end timestep


start timestep kper="1" kstp="281" mode="normal"


end timestep


start timestep kper="1" kstp="282" mode="normal"


end timestep


start timestep kper="1" kstp="283" mode="normal"


end timestep


start timestep kper="1" kstp="284" mode="normal"


end timestep


start timestep kper="1" kstp="285" mode="normal"


end timestep


start timestep kper="1" kstp="286" mode="normal"


end timestep


start timestep kper="1" kstp="287" mode="normal"


end timestep


start timestep kper="1" kstp="288" mode="normal"


end timestep


start timestep kper="1" kstp="289" mode="normal"


end timestep


start timestep kper="1" kstp="290" mode="normal"


end timestep


start timestep kper="1" kstp="291" mode="normal"


end timestep


start timestep kper="1" kstp="292" mode="normal"


end timestep


start timestep kper="1" kstp="293" mode="normal"


end timestep


start timestep kper="1" kstp="294" mode="normal"


end timestep


start timestep kper="1" kstp="295" mode="normal"


end timestep


start timestep kper="1" kstp="296" mode="normal"


end timestep


start timestep kper="1" kstp="297" mode="normal"


end timestep


start timestep kper="1" kstp="298" mode="normal"


end timestep


start timestep kper="1" kstp="299" mode="normal"


end timestep


start timestep kper="1" kstp="300" mode="normal"


end timestep


start timestep kper="1" kstp="301" mode="normal"


end timestep


start timestep kper="1" kstp="302" mode="normal"


end timestep


start timestep kper="1" kstp="303" mode="normal"


end timestep


start timestep kper="1" kstp="304" mode="normal"


end timestep


start timestep kper="1" kstp="305" mode="normal"


end timestep


start timestep kper="1" kstp="306" mode="normal"


end timestep


start timestep kper="1" kstp="307" mode="normal"


end timestep


start timestep kper="1" kstp="308" mode="normal"


end timestep


start timestep kper="1" kstp="309" mode="normal"


end timestep


start timestep kper="1" kstp="310" mode="normal"


end timestep


start timestep kper="1" kstp="311" mode="normal"


end timestep


start timestep kper="1" kstp="312" mode="normal"


end timestep


start timestep kper="1" kstp="313" mode="normal"


end timestep


start timestep kper="1" kstp="314" mode="normal"


end timestep


start timestep kper="1" kstp="315" mode="normal"


end timestep


start timestep kper="1" kstp="316" mode="normal"


end timestep


start timestep kper="1" kstp="317" mode="normal"


end timestep


start timestep kper="1" kstp="318" mode="normal"


end timestep


start timestep kper="1" kstp="319" mode="normal"


end timestep


start timestep kper="1" kstp="320" mode="normal"


end timestep


start timestep kper="1" kstp="321" mode="normal"


end timestep


start timestep kper="1" kstp="322" mode="normal"


end timestep


start timestep kper="1" kstp="323" mode="normal"


end timestep


start timestep kper="1" kstp="324" mode="normal"


end timestep


start timestep kper="1" kstp="325" mode="normal"


end timestep


start timestep kper="1" kstp="326" mode="normal"


end timestep


start timestep kper="1" kstp="327" mode="normal"


end timestep


start timestep kper="1" kstp="328" mode="normal"


end timestep


start timestep kper="1" kstp="329" mode="normal"


end timestep


start timestep kper="1" kstp="330" mode="normal"


end timestep


start timestep kper="1" kstp="331" mode="normal"


end timestep


start timestep kper="1" kstp="332" mode="normal"


end timestep


start timestep kper="1" kstp="333" mode="normal"


end timestep


start timestep kper="1" kstp="334" mode="normal"


end timestep


start timestep kper="1" kstp="335" mode="normal"


end timestep


start timestep kper="1" kstp="336" mode="normal"


end timestep


start timestep kper="1" kstp="337" mode="normal"


end timestep


start timestep kper="1" kstp="338" mode="normal"


end timestep


start timestep kper="1" kstp="339" mode="normal"


end timestep


start timestep kper="1" kstp="340" mode="normal"


end timestep


start timestep kper="1" kstp="341" mode="normal"


end timestep


start timestep kper="1" kstp="342" mode="normal"


end timestep


start timestep kper="1" kstp="343" mode="normal"


end timestep


start timestep kper="1" kstp="344" mode="normal"


end timestep


start timestep kper="1" kstp="345" mode="normal"


end timestep


start timestep kper="1" kstp="346" mode="normal"


end timestep


start timestep kper="1" kstp="347" mode="normal"


end timestep


start timestep kper="1" kstp="348" mode="normal"


end timestep


start timestep kper="1" kstp="349" mode="normal"


end timestep


start timestep kper="1" kstp="350" mode="normal"


end timestep


start timestep kper="1" kstp="351" mode="normal"


end timestep


start timestep kper="1" kstp="352" mode="normal"


end timestep


start timestep kper="1" kstp="353" mode="normal"


end timestep


start timestep kper="1" kstp="354" mode="normal"


end timestep


start timestep kper="1" kstp="355" mode="normal"


end timestep


start timestep kper="1" kstp="356" mode="normal"


end timestep


start timestep kper="1" kstp="357" mode="normal"


end timestep


start timestep kper="1" kstp="358" mode="normal"


end timestep


start timestep kper="1" kstp="359" mode="normal"


end timestep


start timestep kper="1" kstp="360" mode="normal"


end timestep


start timestep kper="1" kstp="361" mode="normal"


end timestep


start timestep kper="1" kstp="362" mode="normal"


end timestep


start timestep kper="1" kstp="363" mode="normal"


end timestep


start timestep kper="1" kstp="364" mode="normal"


end timestep


start timestep kper="1" kstp="365" mode="normal"

 UBDSV1 SAVING  STORAGE-AQUEOUS ON UNIT   1027 AT TIME STEP    365, STRESS PERIOD      1
 UBDSV1 SAVING     FLOW-JA-FACE ON UNIT   1027 AT TIME STEP    365, STRESS PERIOD      1
 UBDSV06 SAVING  SOURCE-SINK MIX IN MODEL GWT-MF6-PR2      PACKAGE GWT-MF6-PR2     CONNECTED TO MODEL GWT-MF6-PR2      PACKAGE SSM              ON UNIT   1027 AT TIME STEP    365, STRESS PERIOD      1

 SSM PACKAGE (SSM) FLOW RATES   PERIOD      1   STEP      365
 ------------------------------------------------------------------------------------------------
   NUMBER   CELLID                   BOUND Q        SSM CONC          RATE         PACKAGE NAME  
 ------------------------------------------------------------------------------------------------
     1      (1,5,5)               10.000000       1000.0000       10000.000           WEL-1      
     2      (1,5,7)               10.000000       1000.0000       10000.000           WEL-1      
     3      (1,8,9)               10.000000       1000.0000       10000.000           WEL-1      
     4      (1,12,6)             -16.000000       65.591252      -1049.4600           WEL-1      
     5      (1,12,8)             -7.0000000       67.032629      -469.22841           WEL-1      
     6      (1,12,9)             -7.0000000       130.47901      -913.35305           WEL-1      
     1      (1,2,2)               63.783460       0.0000000       0.0000000           CHD-1      
     2      (1,13,2)             -95.532167       7.0930363      -677.61312           CHD-1      
     3      (1,2,3)               63.383674       0.0000000       0.0000000           CHD-1      
     4      (1,13,3)             -74.235551       22.615551      -1678.8779           CHD-1      
     5      (1,2,4)               62.637523       0.0000000       0.0000000           CHD-1      
     6      (1,13,4)             -70.084018       52.052864      -3648.0739           CHD-1      
     7      (1,2,5)               61.728882       0.0000000       0.0000000           CHD-1      
     8      (1,13,5)             -63.685587       79.219914      -5045.1668           CHD-1      
     9      (1,2,6)               61.077570       0.0000000       0.0000000           CHD-1      
     10     (1,13,6)             -57.130155       70.008551      -3999.5993           CHD-1      
     11     (1,2,7)               60.561246       0.0000000       0.0000000           CHD-1      
     12     (1,13,7)             -54.850495       83.377393      -4573.2913           CHD-1      
     13     (1,2,8)               60.443446       0.0000000       0.0000000           CHD-1      
     14     (1,13,8)             -49.991979       82.971170      -4147.8930           CHD-1      
     15     (1,2,9)               60.430432       0.0000000       0.0000000           CHD-1      
     16     (1,13,9)             -28.536283       126.77807      -3617.7749           CHD-1      
 ------------------------------------------------------------------------------------------------



1
  CONCENTRATION IN LAYER   1 AT END OF TIME STEP 365 IN STRESS PERIOD    1
  ---------------------------------------------------------------------------

                1               2               3               4               5               6               7               8               9              10
 ................................................................................................................................................................
   1     1.000000E+30    1.000000E+30    1.000000E+30    1.000000E+30    1.000000E+30    1.000000E+30    1.000000E+30    1.000000E+30    1.000000E+30    1.000000E+30
   2     1.000000E+30    8.199698E-05    8.826827E-04    7.329567E-03    3.387951E-02    9.380652E-03    3.471469E-02    4.641254E-03    4.086717E-04    1.000000E+30
   3     1.000000E+30    5.009734E-04    6.619439E-03    6.567990E-02    0.364541        7.527058E-02    0.375030        3.682497E-02    2.457641E-03    1.000000E+30
   4     1.000000E+30    5.032798E-03    8.103753E-02    0.977823         6.89298         1.06234         7.10485        0.523307        2.671125E-02    1.000000E+30
   5     1.000000E+30    3.752138E-02    0.743021         11.6499         130.526         13.2883         134.244         6.71032        0.243326        1.000000E+30
   6     1.000000E+30    0.105037         1.64184         18.7626         123.681         24.5185         127.264         11.5466        0.961301        1.000000E+30
   7     1.000000E+30    0.236400         2.92579         24.9000         114.479         34.6685         116.945         15.7190         8.70056        1.000000E+30
   8     1.000000E+30    0.470617         4.68632         30.5828         105.519         43.5864         106.756         29.3125         142.742        1.000000E+30
   9     1.000000E+30    0.880229         7.16854         36.3271         97.3917         51.3534         98.1953         41.8910         139.897        1.000000E+30
  10     1.000000E+30     1.34455         9.18031         39.5441         91.7384         56.4632         92.7283         50.3365         136.291        1.000000E+30
  11     1.000000E+30     2.07857         11.8391         42.9118         86.8617         60.8378         88.2126         58.2156         133.055        1.000000E+30
  12     1.000000E+30     3.39911         15.5759         46.7639         83.4504         65.5913         85.1019         67.0326         130.479        1.000000E+30
  13     1.000000E+30     7.09304         22.6156         52.0529         79.2199         70.0086         83.3774         82.9712         126.778        1.000000E+30
  14     1.000000E+30    1.000000E+30    1.000000E+30    1.000000E+30    1.000000E+30    1.000000E+30    1.000000E+30    1.000000E+30    1.000000E+30    1.000000E+30

 CONCENTRATION WILL BE SAVED ON UNIT 1028 AT END OF TIME STEP  365, STRESS PERIOD    1


  MASS BUDGET FOR ENTIRE MODEL AT END OF TIME STEP  365, STRESS PERIOD   1
  ---------------------------------------------------------------------------------------------------

     CUMULATIVE MASS      M       RATES FOR THIS TIME STEP      M/T          PACKAGE NAME    
     ------------------                 ------------------------                     ----------------

           IN:                                      IN:
           ---                                      ---
     STORAGE-AQUEOUS =   636119045.9844       STORAGE-AQUEOUS =          19.1183     MST                              
                 WEL =946080000000.0000                   WEL =       30000.0000     SSM_WEL-1                        
                 CHD =           0.0000                   CHD =           0.0000     SSM_CHD-1                        

            TOTAL IN =946716119045.9844              TOTAL IN =       30019.1183

          OUT:                                     OUT:
          ----                                     ----
     STORAGE-AQUEOUS =522019541309.5063       STORAGE-AQUEOUS =         198.7867     MST                              
                 WEL = 43979316404.4492                   WEL =        2432.0415     SSM_WEL-1                        
                 CHD =380717261332.0413                   CHD =       27388.2901     SSM_CHD-1                        

           TOTAL OUT =946716119045.9968             TOTAL OUT =       30019.1183

            IN - OUT =      -1.2451E-02              IN - OUT =       4.6930E-10

 PERCENT DISCREPANCY =          -0.00     PERCENT DISCREPANCY =           0.00




         TIME SUMMARY AT END OF TIME STEP  365 IN STRESS PERIOD    1
                    SECONDS     MINUTES      HOURS       DAYS        YEARS
                    -----------------------------------------------------------
   TIME STEP LENGTH  86400.      1440.0      24.000      1.0000     2.73785E-03
 STRESS PERIOD TIME 3.15360E+07 5.25600E+05  8760.0      365.00     0.99932    
         TOTAL TIME 3.15360E+07 5.25600E+05  8760.0      365.00     0.99932    


end timestep


start timestep kper="2" kstp="1" mode="normal"


 END OF FILE DETECTED IN OUTPUT CONTROL.
 CURRENT OUTPUT CONTROL SETTINGS WILL BE 
 REPEATED UNTIL THE END OF THE SIMULATION.

 OUTPUT CONTROL FOR STRESS PERIOD 2 IS REPEATED USING SETTINGS FROM A PREVIOUS STRESS PERIOD.

end timestep


start timestep kper="2" kstp="2" mode="normal"


end timestep


start timestep kper="2" kstp="3" mode="normal"


end timestep


start timestep kper="2" kstp="4" mode="normal"


end timestep


start timestep kper="2" kstp="5" mode="normal"


end timestep


start timestep kper="2" kstp="6" mode="normal"


end timestep


start timestep kper="2" kstp="7" mode="normal"


end timestep


start timestep kper="2" kstp="8" mode="normal"


end timestep


start timestep kper="2" kstp="9" mode="normal"


end timestep


start timestep kper="2" kstp="10" mode="normal"


end timestep


start timestep kper="2" kstp="11" mode="normal"


end timestep


start timestep kper="2" kstp="12" mode="normal"


end timestep


start timestep kper="2" kstp="13" mode="normal"


end timestep


start timestep kper="2" kstp="14" mode="normal"


end timestep


start timestep kper="2" kstp="15" mode="normal"


end timestep


start timestep kper="2" kstp="16" mode="normal"


end timestep


start timestep kper="2" kstp="17" mode="normal"


end timestep


start timestep kper="2" kstp="18" mode="normal"


end timestep


start timestep kper="2" kstp="19" mode="normal"


end timestep


start timestep kper="2" kstp="20" mode="normal"


end timestep


start timestep kper="2" kstp="21" mode="normal"


end timestep


start timestep kper="2" kstp="22" mode="normal"


end timestep


start timestep kper="2" kstp="23" mode="normal"


end timestep


start timestep kper="2" kstp="24" mode="normal"


end timestep


start timestep kper="2" kstp="25" mode="normal"


end timestep


start timestep kper="2" kstp="26" mode="normal"


end timestep


start timestep kper="2" kstp="27" mode="normal"


end timestep


start timestep kper="2" kstp="28" mode="normal"


end timestep


start timestep kper="2" kstp="29" mode="normal"


end timestep


start timestep kper="2" kstp="30" mode="normal"


end timestep


start timestep kper="2" kstp="31" mode="normal"


end timestep


start timestep kper="2" kstp="32" mode="normal"


end timestep


start timestep kper="2" kstp="33" mode="normal"


end timestep


start timestep kper="2" kstp="34" mode="normal"


end timestep


start timestep kper="2" kstp="35" mode="normal"


end timestep


start timestep kper="2" kstp="36" mode="normal"


end timestep


start timestep kper="2" kstp="37" mode="normal"


end timestep


start timestep kper="2" kstp="38" mode="normal"


end timestep


start timestep kper="2" kstp="39" mode="normal"


end timestep


start timestep kper="2" kstp="40" mode="normal"


end timestep


start timestep kper="2" kstp="41" mode="normal"


end timestep


start timestep kper="2" kstp="42" mode="normal"


end timestep


start timestep kper="2" kstp="43" mode="normal"


end timestep


start timestep kper="2" kstp="44" mode="normal"


end timestep


start timestep kper="2" kstp="45" mode="normal"


end timestep


start timestep kper="2" kstp="46" mode="normal"


end timestep


start timestep kper="2" kstp="47" mode="normal"


end timestep


start timestep kper="2" kstp="48" mode="normal"


end timestep


start timestep kper="2" kstp="49" mode="normal"


end timestep


start timestep kper="2" kstp="50" mode="normal"


end timestep


start timestep kper="2" kstp="51" mode="normal"


end timestep


start timestep kper="2" kstp="52" mode="normal"


end timestep


start timestep kper="2" kstp="53" mode="normal"


end timestep


start timestep kper="2" kstp="54" mode="normal"


end timestep


start timestep kper="2" kstp="55" mode="normal"


end timestep


start timestep kper="2" kstp="56" mode="normal"


end timestep


start timestep kper="2" kstp="57" mode="normal"


end timestep


start timestep kper="2" kstp="58" mode="normal"


end timestep


start timestep kper="2" kstp="59" mode="normal"


end timestep


start timestep kper="2" kstp="60" mode="normal"


end timestep


start timestep kper="2" kstp="61" mode="normal"


end timestep


start timestep kper="2" kstp="62" mode="normal"


end timestep


start timestep kper="2" kstp="63" mode="normal"


end timestep


start timestep kper="2" kstp="64" mode="normal"


end timestep


start timestep kper="2" kstp="65" mode="normal"


end timestep


start timestep kper="2" kstp="66" mode="normal"


end timestep


start timestep kper="2" kstp="67" mode="normal"


end timestep


start timestep kper="2" kstp="68" mode="normal"


end timestep


start timestep kper="2" kstp="69" mode="normal"


end timestep


start timestep kper="2" kstp="70" mode="normal"


end timestep


start timestep kper="2" kstp="71" mode="normal"


end timestep


start timestep kper="2" kstp="72" mode="normal"


end timestep


start timestep kper="2" kstp="73" mode="normal"


end timestep


start timestep kper="2" kstp="74" mode="normal"


end timestep


start timestep kper="2" kstp="75" mode="normal"


end timestep


start timestep kper="2" kstp="76" mode="normal"


end timestep


start timestep kper="2" kstp="77" mode="normal"


end timestep


start timestep kper="2" kstp="78" mode="normal"


end timestep


start timestep kper="2" kstp="79" mode="normal"


end timestep


start timestep kper="2" kstp="80" mode="normal"


end timestep


start timestep kper="2" kstp="81" mode="normal"


end timestep


start timestep kper="2" kstp="82" mode="normal"


end timestep


start timestep kper="2" kstp="83" mode="normal"


end timestep


start timestep kper="2" kstp="84" mode="normal"


end timestep


start timestep kper="2" kstp="85" mode="normal"


end timestep


start timestep kper="2" kstp="86" mode="normal"


end timestep


start timestep kper="2" kstp="87" mode="normal"


end timestep


start timestep kper="2" kstp="88" mode="normal"


end timestep


start timestep kper="2" kstp="89" mode="normal"


end timestep


start timestep kper="2" kstp="90" mode="normal"


end timestep


start timestep kper="2" kstp="91" mode="normal"


end timestep


start timestep kper="2" kstp="92" mode="normal"


end timestep


start timestep kper="2" kstp="93" mode="normal"


end timestep


start timestep kper="2" kstp="94" mode="normal"


end timestep


start timestep kper="2" kstp="95" mode="normal"


end timestep


start timestep kper="2" kstp="96" mode="normal"


end timestep


start timestep kper="2" kstp="97" mode="normal"


end timestep


start timestep kper="2" kstp="98" mode="normal"


end timestep


start timestep kper="2" kstp="99" mode="normal"


end timestep


start timestep kper="2" kstp="100" mode="normal"


end timestep


start timestep kper="2" kstp="101" mode="normal"


end timestep


start timestep kper="2" kstp="102" mode="normal"


end timestep


start timestep kper="2" kstp="103" mode="normal"


end timestep


start timestep kper="2" kstp="104" mode="normal"


end timestep


start timestep kper="2" kstp="105" mode="normal"


end timestep


start timestep kper="2" kstp="106" mode="normal"


end timestep


start timestep kper="2" kstp="107" mode="normal"


end timestep


start timestep kper="2" kstp="108" mode="normal"


end timestep


start timestep kper="2" kstp="109" mode="normal"


end timestep


start timestep kper="2" kstp="110" mode="normal"


end timestep


start timestep kper="2" kstp="111" mode="normal"


end timestep


start timestep kper="2" kstp="112" mode="normal"


end timestep


start timestep kper="2" kstp="113" mode="normal"


end timestep


start timestep kper="2" kstp="114" mode="normal"


end timestep


start timestep kper="2" kstp="115" mode="normal"


end timestep


start timestep kper="2" kstp="116" mode="normal"


end timestep


start timestep kper="2" kstp="117" mode="normal"


end timestep


start timestep kper="2" kstp="118" mode="normal"


end timestep


start timestep kper="2" kstp="119" mode="normal"


end timestep


start timestep kper="2" kstp="120" mode="normal"


end timestep


start timestep kper="2" kstp="121" mode="normal"


end timestep


start timestep kper="2" kstp="122" mode="normal"


end timestep


start timestep kper="2" kstp="123" mode="normal"


end timestep


start timestep kper="2" kstp="124" mode="normal"


end timestep


start timestep kper="2" kstp="125" mode="normal"


end timestep


start timestep kper="2" kstp="126" mode="normal"


end timestep


start timestep kper="2" kstp="127" mode="normal"


end timestep


start timestep kper="2" kstp="128" mode="normal"


end timestep


start timestep kper="2" kstp="129" mode="normal"


end timestep


start timestep kper="2" kstp="130" mode="normal"


end timestep


start timestep kper="2" kstp="131" mode="normal"


end timestep


start timestep kper="2" kstp="132" mode="normal"


end timestep


start timestep kper="2" kstp="133" mode="normal"


end timestep


start timestep kper="2" kstp="134" mode="normal"


end timestep


start timestep kper="2" kstp="135" mode="normal"


end timestep


start timestep kper="2" kstp="136" mode="normal"


end timestep


start timestep kper="2" kstp="137" mode="normal"


end timestep


start timestep kper="2" kstp="138" mode="normal"


end timestep


start timestep kper="2" kstp="139" mode="normal"


end timestep


start timestep kper="2" kstp="140" mode="normal"


end timestep


start timestep kper="2" kstp="141" mode="normal"


end timestep


start timestep kper="2" kstp="142" mode="normal"


end timestep


start timestep kper="2" kstp="143" mode="normal"


end timestep


start timestep kper="2" kstp="144" mode="normal"


end timestep


start timestep kper="2" kstp="145" mode="normal"


end timestep


start timestep kper="2" kstp="146" mode="normal"


end timestep


start timestep kper="2" kstp="147" mode="normal"


end timestep


start timestep kper="2" kstp="148" mode="normal"


end timestep


start timestep kper="2" kstp="149" mode="normal"


end timestep


start timestep kper="2" kstp="150" mode="normal"


end timestep


start timestep kper="2" kstp="151" mode="normal"


end timestep


start timestep kper="2" kstp="152" mode="normal"


end timestep


start timestep kper="2" kstp="153" mode="normal"


end timestep


start timestep kper="2" kstp="154" mode="normal"


end timestep


start timestep kper="2" kstp="155" mode="normal"


end timestep


start timestep kper="2" kstp="156" mode="normal"


end timestep


start timestep kper="2" kstp="157" mode="normal"


end timestep


start timestep kper="2" kstp="158" mode="normal"


end timestep


start timestep kper="2" kstp="159" mode="normal"


end timestep


start timestep kper="2" kstp="160" mode="normal"


end timestep


start timestep kper="2" kstp="161" mode="normal"


end timestep


start timestep kper="2" kstp="162" mode="normal"


end timestep


start timestep kper="2" kstp="163" mode="normal"


end timestep


start timestep kper="2" kstp="164" mode="normal"


end timestep


start timestep kper="2" kstp="165" mode="normal"


end timestep


start timestep kper="2" kstp="166" mode="normal"


end timestep


start timestep kper="2" kstp="167" mode="normal"


end timestep


start timestep kper="2" kstp="168" mode="normal"


end timestep


start timestep kper="2" kstp="169" mode="normal"


end timestep


start timestep kper="2" kstp="170" mode="normal"


end timestep


start timestep kper="2" kstp="171" mode="normal"


end timestep


start timestep kper="2" kstp="172" mode="normal"


end timestep


start timestep kper="2" kstp="173" mode="normal"


end timestep


start timestep kper="2" kstp="174" mode="normal"


end timestep


start timestep kper="2" kstp="175" mode="normal"


end timestep


start timestep kper="2" kstp="176" mode="normal"


end timestep


start timestep kper="2" kstp="177" mode="normal"


end timestep


start timestep kper="2" kstp="178" mode="normal"


end timestep


start timestep kper="2" kstp="179" mode="normal"


end timestep


start timestep kper="2" kstp="180" mode="normal"


end timestep


start timestep kper="2" kstp="181" mode="normal"


end timestep


start timestep kper="2" kstp="182" mode="normal"


end timestep


start timestep kper="2" kstp="183" mode="normal"


end timestep


start timestep kper="2" kstp="184" mode="normal"


end timestep


start timestep kper="2" kstp="185" mode="normal"


end timestep


start timestep kper="2" kstp="186" mode="normal"


end timestep


start timestep kper="2" kstp="187" mode="normal"


end timestep


start timestep kper="2" kstp="188" mode="normal"


end timestep


start timestep kper="2" kstp="189" mode="normal"


end timestep


start timestep kper="2" kstp="190" mode="normal"


end timestep


start timestep kper="2" kstp="191" mode="normal"


end timestep


start timestep kper="2" kstp="192" mode="normal"


end timestep


start timestep kper="2" kstp="193" mode="normal"


end timestep


start timestep kper="2" kstp="194" mode="normal"


end timestep


start timestep kper="2" kstp="195" mode="normal"


end timestep


start timestep kper="2" kstp="196" mode="normal"


end timestep


start timestep kper="2" kstp="197" mode="normal"


end timestep


start timestep kper="2" kstp="198" mode="normal"


end timestep


start timestep kper="2" kstp="199" mode="normal"


end timestep


start timestep kper="2" kstp="200" mode="normal"


end timestep


start timestep kper="2" kstp="201" mode="normal"


end timestep


start timestep kper="2" kstp="202" mode="normal"


end timestep


start timestep kper="2" kstp="203" mode="normal"


end timestep


start timestep kper="2" kstp="204" mode="normal"


end timestep


start timestep kper="2" kstp="205" mode="normal"


end timestep


start timestep kper="2" kstp="206" mode="normal"


end timestep


start timestep kper="2" kstp="207" mode="normal"


end timestep


start timestep kper="2" kstp="208" mode="normal"


end timestep


start timestep kper="2" kstp="209" mode="normal"


end timestep


start timestep kper="2" kstp="210" mode="normal"


end timestep


start timestep kper="2" kstp="211" mode="normal"


end timestep


start timestep kper="2" kstp="212" mode="normal"


end timestep


start timestep kper="2" kstp="213" mode="normal"


end timestep


start timestep kper="2" kstp="214" mode="normal"


end timestep


start timestep kper="2" kstp="215" mode="normal"


end timestep


start timestep kper="2" kstp="216" mode="normal"


end timestep


start timestep kper="2" kstp="217" mode="normal"


end timestep


start timestep kper="2" kstp="218" mode="normal"


end timestep


start timestep kper="2" kstp="219" mode="normal"


end timestep


start timestep kper="2" kstp="220" mode="normal"


end timestep


start timestep kper="2" kstp="221" mode="normal"


end timestep


start timestep kper="2" kstp="222" mode="normal"


end timestep


start timestep kper="2" kstp="223" mode="normal"


end timestep


start timestep kper="2" kstp="224" mode="normal"


end timestep


start timestep kper="2" kstp="225" mode="normal"


end timestep


start timestep kper="2" kstp="226" mode="normal"


end timestep


start timestep kper="2" kstp="227" mode="normal"


end timestep


start timestep kper="2" kstp="228" mode="normal"


end timestep


start timestep kper="2" kstp="229" mode="normal"


end timestep


start timestep kper="2" kstp="230" mode="normal"


end timestep


start timestep kper="2" kstp="231" mode="normal"


end timestep


start timestep kper="2" kstp="232" mode="normal"


end timestep


start timestep kper="2" kstp="233" mode="normal"


end timestep


start timestep kper="2" kstp="234" mode="normal"


end timestep


start timestep kper="2" kstp="235" mode="normal"


end timestep


start timestep kper="2" kstp="236" mode="normal"


end timestep


start timestep kper="2" kstp="237" mode="normal"


end timestep


start timestep kper="2" kstp="238" mode="normal"


end timestep


start timestep kper="2" kstp="239" mode="normal"


end timestep


start timestep kper="2" kstp="240" mode="normal"


end timestep


start timestep kper="2" kstp="241" mode="normal"


end timestep


start timestep kper="2" kstp="242" mode="normal"


end timestep


start timestep kper="2" kstp="243" mode="normal"


end timestep


start timestep kper="2" kstp="244" mode="normal"


end timestep


start timestep kper="2" kstp="245" mode="normal"


end timestep


start timestep kper="2" kstp="246" mode="normal"


end timestep


start timestep kper="2" kstp="247" mode="normal"


end timestep


start timestep kper="2" kstp="248" mode="normal"


end timestep


start timestep kper="2" kstp="249" mode="normal"


end timestep


start timestep kper="2" kstp="250" mode="normal"


end timestep


start timestep kper="2" kstp="251" mode="normal"


end timestep


start timestep kper="2" kstp="252" mode="normal"


end timestep


start timestep kper="2" kstp="253" mode="normal"


end timestep


start timestep kper="2" kstp="254" mode="normal"


end timestep


start timestep kper="2" kstp="255" mode="normal"


end timestep


start timestep kper="2" kstp="256" mode="normal"


end timestep


start timestep kper="2" kstp="257" mode="normal"


end timestep


start timestep kper="2" kstp="258" mode="normal"


end timestep


start timestep kper="2" kstp="259" mode="normal"


end timestep


start timestep kper="2" kstp="260" mode="normal"


end timestep


start timestep kper="2" kstp="261" mode="normal"


end timestep


start timestep kper="2" kstp="262" mode="normal"


end timestep


start timestep kper="2" kstp="263" mode="normal"


end timestep


start timestep kper="2" kstp="264" mode="normal"


end timestep


start timestep kper="2" kstp="265" mode="normal"


end timestep


start timestep kper="2" kstp="266" mode="normal"


end timestep


start timestep kper="2" kstp="267" mode="normal"


end timestep


start timestep kper="2" kstp="268" mode="normal"


end timestep


start timestep kper="2" kstp="269" mode="normal"


end timestep


start timestep kper="2" kstp="270" mode="normal"


end timestep


start timestep kper="2" kstp="271" mode="normal"


end timestep


start timestep kper="2" kstp="272" mode="normal"


end timestep


start timestep kper="2" kstp="273" mode="normal"


end timestep


start timestep kper="2" kstp="274" mode="normal"


end timestep


start timestep kper="2" kstp="275" mode="normal"


end timestep


start timestep kper="2" kstp="276" mode="normal"


end timestep


start timestep kper="2" kstp="277" mode="normal"


end timestep


start timestep kper="2" kstp="278" mode="normal"


end timestep


start timestep kper="2" kstp="279" mode="normal"


end timestep


start timestep kper="2" kstp="280" mode="normal"


end timestep


start timestep kper="2" kstp="281" mode="normal"


end timestep


start timestep kper="2" kstp="282" mode="normal"


end timestep


start timestep kper="2" kstp="283" mode="normal"


end timestep


start timestep kper="2" kstp="284" mode="normal"


end timestep


start timestep kper="2" kstp="285" mode="normal"


end timestep


start timestep kper="2" kstp="286" mode="normal"


end timestep


start timestep kper="2" kstp="287" mode="normal"


end timestep


start timestep kper="2" kstp="288" mode="normal"


end timestep


start timestep kper="2" kstp="289" mode="normal"


end timestep


start timestep kper="2" kstp="290" mode="normal"


end timestep


start timestep kper="2" kstp="291" mode="normal"


end timestep


start timestep kper="2" kstp="292" mode="normal"


end timestep


start timestep kper="2" kstp="293" mode="normal"


end timestep


start timestep kper="2" kstp="294" mode="normal"


end timestep


start timestep kper="2" kstp="295" mode="normal"


end timestep


start timestep kper="2" kstp="296" mode="normal"


end timestep


start timestep kper="2" kstp="297" mode="normal"


end timestep


start timestep kper="2" kstp="298" mode="normal"


end timestep


start timestep kper="2" kstp="299" mode="normal"


end timestep


start timestep kper="2" kstp="300" mode="normal"


end timestep


start timestep kper="2" kstp="301" mode="normal"


end timestep


start timestep kper="2" kstp="302" mode="normal"


end timestep


start timestep kper="2" kstp="303" mode="normal"


end timestep


start timestep kper="2" kstp="304" mode="normal"


end timestep


start timestep kper="2" kstp="305" mode="normal"


end timestep


start timestep kper="2" kstp="306" mode="normal"


end timestep


start timestep kper="2" kstp="307" mode="normal"


end timestep


start timestep kper="2" kstp="308" mode="normal"


end timestep


start timestep kper="2" kstp="309" mode="normal"


end timestep


start timestep kper="2" kstp="310" mode="normal"


end timestep


start timestep kper="2" kstp="311" mode="normal"


end timestep


start timestep kper="2" kstp="312" mode="normal"


end timestep


start timestep kper="2" kstp="313" mode="normal"


end timestep


start timestep kper="2" kstp="314" mode="normal"


end timestep


start timestep kper="2" kstp="315" mode="normal"


end timestep


start timestep kper="2" kstp="316" mode="normal"


end timestep


start timestep kper="2" kstp="317" mode="normal"


end timestep


start timestep kper="2" kstp="318" mode="normal"


end timestep


start timestep kper="2" kstp="319" mode="normal"


end timestep


start timestep kper="2" kstp="320" mode="normal"


end timestep


start timestep kper="2" kstp="321" mode="normal"


end timestep


start timestep kper="2" kstp="322" mode="normal"


end timestep


start timestep kper="2" kstp="323" mode="normal"


end timestep


start timestep kper="2" kstp="324" mode="normal"


end timestep


start timestep kper="2" kstp="325" mode="normal"


end timestep


start timestep kper="2" kstp="326" mode="normal"


end timestep


start timestep kper="2" kstp="327" mode="normal"


end timestep


start timestep kper="2" kstp="328" mode="normal"


end timestep


start timestep kper="2" kstp="329" mode="normal"


end timestep


start timestep kper="2" kstp="330" mode="normal"


end timestep


start timestep kper="2" kstp="331" mode="normal"


end timestep


start timestep kper="2" kstp="332" mode="normal"


end timestep


start timestep kper="2" kstp="333" mode="normal"


end timestep


start timestep kper="2" kstp="334" mode="normal"


end timestep


start timestep kper="2" kstp="335" mode="normal"


end timestep


start timestep kper="2" kstp="336" mode="normal"


end timestep


start timestep kper="2" kstp="337" mode="normal"


end timestep


start timestep kper="2" kstp="338" mode="normal"


end timestep


start timestep kper="2" kstp="339" mode="normal"


end timestep


start timestep kper="2" kstp="340" mode="normal"


end timestep


start timestep kper="2" kstp="341" mode="normal"


end timestep


start timestep kper="2" kstp="342" mode="normal"


end timestep


start timestep kper="2" kstp="343" mode="normal"


end timestep


start timestep kper="2" kstp="344" mode="normal"


end timestep


start timestep kper="2" kstp="345" mode="normal"


end timestep


start timestep kper="2" kstp="346" mode="normal"


end timestep


start timestep kper="2" kstp="347" mode="normal"


end timestep


start timestep kper="2" kstp="348" mode="normal"


end timestep


start timestep kper="2" kstp="349" mode="normal"


end timestep


start timestep kper="2" kstp="350" mode="normal"


end timestep


start timestep kper="2" kstp="351" mode="normal"


end timestep


start timestep kper="2" kstp="352" mode="normal"


end timestep


start timestep kper="2" kstp="353" mode="normal"


end timestep


start timestep kper="2" kstp="354" mode="normal"


end timestep


start timestep kper="2" kstp="355" mode="normal"


end timestep


start timestep kper="2" kstp="356" mode="normal"


end timestep


start timestep kper="2" kstp="357" mode="normal"


end timestep


start timestep kper="2" kstp="358" mode="normal"


end timestep


start timestep kper="2" kstp="359" mode="normal"


end timestep


start timestep kper="2" kstp="360" mode="normal"


end timestep


start timestep kper="2" kstp="361" mode="normal"


end timestep


start timestep kper="2" kstp="362" mode="normal"


end timestep


start timestep kper="2" kstp="363" mode="normal"


end timestep


start timestep kper="2" kstp="364" mode="normal"


end timestep


start timestep kper="2" kstp="365" mode="normal"

 UBDSV1 SAVING  STORAGE-AQUEOUS ON UNIT   1027 AT TIME STEP    365, STRESS PERIOD      2
 UBDSV1 SAVING     FLOW-JA-FACE ON UNIT   1027 AT TIME STEP    365, STRESS PERIOD      2
 UBDSV06 SAVING  SOURCE-SINK MIX IN MODEL GWT-MF6-PR2      PACKAGE GWT-MF6-PR2     CONNECTED TO MODEL GWT-MF6-PR2      PACKAGE SSM              ON UNIT   1027 AT TIME STEP    365, STRESS PERIOD      2

 SSM PACKAGE (SSM) FLOW RATES   PERIOD      2   STEP      365
 ------------------------------------------------------------------------------------------------
   NUMBER   CELLID                   BOUND Q        SSM CONC          RATE         PACKAGE NAME  
 ------------------------------------------------------------------------------------------------
     1      (1,5,5)               10.000000       1000.0000       10000.000           WEL-1      
     2      (1,5,7)               0.0000000       1000.0000       0.0000000           WEL-1      
     3      (1,8,9)               20.000000       1000.0000       20000.000           WEL-1      
     4      (1,12,6)             -16.000000       25.506014      -408.09622           WEL-1      
     5      (1,12,8)             -7.0000000       99.129492      -693.90644           WEL-1      
     6      (1,12,9)             -7.0000000       234.93065      -1644.5145           WEL-1      
     1      (1,2,2)               63.737703       0.0000000       0.0000000           CHD-1      
     2      (1,13,2)             -95.612494       6.7219784      -642.70512           CHD-1      
     3      (1,2,3)               63.375895       0.0000000       0.0000000           CHD-1      
     4      (1,13,3)             -74.326823       20.708052      -1539.1637           CHD-1      
     5      (1,2,4)               62.715116       0.0000000       0.0000000           CHD-1      
     6      (1,13,4)             -70.198139       44.685162      -3136.8152           CHD-1      
     7      (1,2,5)               61.950991       0.0000000       0.0000000           CHD-1      
     8      (1,13,5)             -63.835879       60.562651      -3866.0701           CHD-1      
     9      (1,2,6)               61.489934       0.0000000       0.0000000           CHD-1      
     10     (1,13,6)             -57.330507       33.895995      -1943.2746           CHD-1      
     11     (1,2,7)               61.096202       0.0000000       0.0000000           CHD-1      
     12     (1,13,7)             -55.111892       56.417619      -3109.2817           CHD-1      
     13     (1,2,8)               60.743728       0.0000000       0.0000000           CHD-1      
     14     (1,13,8)             -50.315122       129.90443      -6536.1571           CHD-1      
     15     (1,2,9)               60.522975       0.0000000       0.0000000           CHD-1      
     16     (1,13,9)             -28.901687       227.58775      -6577.6699           CHD-1      
 ------------------------------------------------------------------------------------------------



1
  CONCENTRATION IN LAYER   1 AT END OF TIME STEP 365 IN STRESS PERIOD    2
  ---------------------------------------------------------------------------

                1               2               3               4               5               6               7               8               9              10
 ................................................................................................................................................................
   1     1.000000E+30    1.000000E+30    1.000000E+30    1.000000E+30    1.000000E+30    1.000000E+30    1.000000E+30    1.000000E+30    1.000000E+30    1.000000E+30
   2     1.000000E+30    7.436509E-05    8.144323E-04    6.952226E-03    3.345073E-02    3.671873E-03    2.651591E-04    1.988467E-05    1.259996E-05    1.000000E+30
   3     1.000000E+30    4.493006E-04    6.037717E-03    6.184370E-02    0.362389        2.703734E-02    1.438762E-03    1.034308E-04    1.237447E-04    1.000000E+30
   4     1.000000E+30    4.509004E-03    7.382214E-02    0.920550         6.88562        0.364948        1.465570E-02    1.143763E-03    2.228363E-03    1.000000E+30
   5     1.000000E+30    3.389273E-02    0.682360         11.0661         130.918         4.57518        0.138779        1.452917E-02    4.152129E-02    1.000000E+30
   6     1.000000E+30    9.731140E-02     1.54569         18.1181         123.419         9.03232        0.421658        0.191146        0.780821        1.000000E+30
   7     1.000000E+30    0.225345         2.82616         24.3404         112.429         12.5635         1.06987         2.81987         14.7370        1.000000E+30
   8     1.000000E+30    0.459634         4.60969         29.9539         100.698         15.2681         4.27911         33.0341         260.281        1.000000E+30
   9     1.000000E+30    0.873453         7.09829         35.1338         88.8668         17.7239         10.5712         59.1588         254.468        1.000000E+30
  10     1.000000E+30     1.33490         9.03647         37.7050         80.9921         20.1527         15.7597         71.6184         247.059        1.000000E+30
  11     1.000000E+30     2.05004         11.5009         40.0312         73.6025         22.3200         22.6878         83.6372         240.341        1.000000E+30
  12     1.000000E+30     3.29944         14.7881         42.2588         67.6835         25.5060         32.5849         99.1295         234.931        1.000000E+30
  13     1.000000E+30     6.72198         20.7081         44.6852         60.5627         33.8960         56.4176         129.904         227.588        1.000000E+30
  14     1.000000E+30    1.000000E+30    1.000000E+30    1.000000E+30    1.000000E+30    1.000000E+30    1.000000E+30    1.000000E+30    1.000000E+30    1.000000E+30

 CONCENTRATION WILL BE SAVED ON UNIT 1028 AT END OF TIME STEP  365, STRESS PERIOD    2


  MASS BUDGET FOR ENTIRE MODEL AT END OF TIME STEP  365, STRESS PERIOD   2
  ---------------------------------------------------------------------------------------------------

     CUMULATIVE MASS      M       RATES FOR THIS TIME STEP      M/T          PACKAGE NAME    
     ------------------                 ------------------------                     ----------------

           IN:                                      IN:
           ---                                      ---
     STORAGE-AQUEOUS =170204949796.4351       STORAGE-AQUEOUS =          99.2965     MST                              
                 WEL =       1.8922E+12                   WEL =       30000.0000     SSM_WEL-1                        
                 CHD =           0.0000                   CHD =           0.0000     SSM_CHD-1                        

            TOTAL IN =       2.0624E+12              TOTAL IN =       30099.2965

          OUT:                                     OUT:
          ----                                     ----
     STORAGE-AQUEOUS =640525046520.2592       STORAGE-AQUEOUS =           1.6418     MST                              
                 WEL =132585881712.5063                   WEL =        2746.5172     SSM_WEL-1                        
                 CHD =       1.2893E+12                   CHD =       27351.1375     SSM_CHD-1                        

           TOTAL OUT =       2.0624E+12             TOTAL OUT =       30099.2965

            IN - OUT =      -1.4160E-02              IN - OUT =       3.6380E-11

 PERCENT DISCREPANCY =          -0.00     PERCENT DISCREPANCY =           0.00




         TIME SUMMARY AT END OF TIME STEP  365 IN STRESS PERIOD    2
                    SECONDS     MINUTES      HOURS       DAYS        YEARS
                    -----------------------------------------------------------
   TIME STEP LENGTH  86400.      1440.0      24.000      1.0000     2.73785E-03
 STRESS PERIOD TIME 3.15360E+07 5.25600E+05  8760.0      365.00     0.99932    
         TOTAL TIME 6.30720E+07 1.05120E+06  17520.      730.00      1.9986    


end timestep

